@<TRIPOS>MOLECULE
ZINC93926904
21   22    1
SMALL
USER_CHARGES


@<TRIPOS>ATOM
      1 C1         -1.7031   -0.4191    0.0000 C.3       1 UNK         0.0000 
      2 N2         -0.5768   -1.0683    0.0000 N.4       1 UNK         0.0000 
      3 C3          0.5485   -0.4173    0.0000 C.3       1 UNK         0.0000 
      4 C4          1.6748   -1.0665    0.0000 C.3       1 UNK         0.0000 
      5 O5          2.8000   -0.4155    0.0000 O.3       1 UNK         0.0000 
      6 C6          3.9263   -1.0647    0.0000 C.3       1 UNK         0.0000 
      7 C7          3.9274   -2.3647    0.0000 C.3       1 UNK         0.0000 
      8 N8          2.8021   -3.0154    0.0000 N.3       1 UNK         0.0000 
      9 C9          1.6758   -2.3665    0.0000 C.3       1 UNK         0.0000 
     10 C10         2.8032   -4.3154    0.0000 C.3       1 UNK         0.0000 
     11 C11         3.9295   -4.9646    0.0000 C.3       1 UNK         0.0000 
     12 C12         1.6779   -4.9665    0.0000 C.3       1 UNK         0.0000 
     13 C13         0.5474    0.8827    0.0000 C.3       1 UNK         0.0000 
     14 C14        -0.5791    1.5319    0.0000 C.ar      1 UNK         0.0000 
     15 C15        -1.7660    1.0018    0.0000 C.ar      1 UNK         0.0000 
     16 C16        -2.6365    1.9674    0.0000 C.ar      1 UNK         0.0000 
     17 N17        -1.9875    3.0940    0.0000 N.2       1 UNK         0.0000 
     18 N18        -0.7156    2.8243    0.0000 N.pl3     1 UNK         0.0000 
     19 C19         0.2495    3.6951    0.0000 C.3       1 UNK         0.0000 
     20 C20        -0.0217    4.9665    0.0000 C.3       1 UNK         0.0000 
     21 C21        -3.9295    1.8304    0.0000 C.3       1 UNK         0.0000 
@<TRIPOS>BOND
     1    1    2 1    
     2    2    3 1    
     3    3    4 1    
     4    3   13 1    
     5    4    9 1    
     6    4    5 1    
     7    5    6 1    
     8    6    7 1    
     9    7    8 1    
    10    8    9 1    
    11    8   10 1    
    12   10   11 1    
    13   10   12 1    
    14   13   14 1    
    15   14   18 ar   
    16   14   15 ar   
    17   15   16 ar   
    18   16   17 ar   
    19   16   21 1    
    20   17   18 ar   
    21   18   19 1    
    22   19   20 1    
@<TRIPOS>SUBSTRUCTURE
     1 UNK         1 GROUP             0       ****    0 ROOT    
