@<TRIPOS>MOLECULE
ZINC71940290
25   28    1
SMALL
USER_CHARGES


@<TRIPOS>ATOM
      1 O1          1.1609    2.9507    0.0000 O.2       1 UNK         0.0000 
      2 C2          0.0356    2.2996    0.0000 C.2       1 UNK         0.0000 
      3 C3         -1.0907    2.9489    0.0000 C.3       1 UNK         0.0000 
      4 C4         -1.0920    4.2486    0.0000 C.3       1 UNK         0.0000 
      5 O5         -2.2181    4.8979    0.0000 O.3       1 UNK         0.0000 
      6 C6         -3.3434    4.2468    0.0000 C.ar      1 UNK         0.0000 
      7 C7         -3.3424    2.9470    0.0000 C.ar      1 UNK         0.0000 
      8 C8         -2.2163    2.2978    0.0000 C.3       1 UNK         0.0000 
      9 C9         -4.4677    2.2960    0.0000 C.ar      1 UNK         0.0000 
     10 C10        -5.5940    2.9452    0.0000 C.ar      1 UNK         0.0000 
     11 C11        -5.5951    4.2452    0.0000 C.ar      1 UNK         0.0000 
     12 C12        -4.4698    4.8963    0.0000 C.ar      1 UNK         0.0000 
     13 N13         0.0364    0.9996    0.0000 N.am      1 UNK         0.0000 
     14 C14         1.1627    0.3504    0.0000 C.ar      1 UNK         0.0000 
     15 C15         2.2881    1.0014    0.0000 C.ar      1 UNK         0.0000 
     16 C16         3.4144    0.3522    0.0000 C.ar      1 UNK         0.0000 
     17 C17         3.4154   -0.9479    0.0000 C.ar      1 UNK         0.0000 
     18 C18         2.2901   -1.5986    0.0000 C.ar      1 UNK         0.0000 
     19 C19         1.1638   -0.9494    0.0000 C.ar      1 UNK         0.0000 
     20 S20         4.5418   -1.5968    0.0000 S.3       1 UNK         0.0000 
     21 C21         4.5428   -2.8969    0.0000 C.2       1 UNK         0.0000 
     22 N22         5.5951   -3.6602    0.0000 N.2       1 UNK         0.0000 
     23 N23         5.1947   -4.8968    0.0000 N.2       1 UNK         0.0000 
     24 C24         3.8944   -4.8979    0.0000 C         1 UNK         0.0000 
     25 S25         3.4919   -3.6618    0.0000 S.3       1 UNK         0.0000 
@<TRIPOS>BOND
     1    1    2 2    
     2    2    3 1    
     3    2   13 am   BACKBONE|DICT|INTERRES
     4    3    8 1    
     5    3    4 1    
     6    4    5 1    
     7    5    6 1    
     8    6   12 ar   
     9    6    7 ar   
    10    7    8 1    
    11    7    9 ar   
    12    9   10 ar   
    13   10   11 ar   
    14   11   12 ar   
    15   13   14 1    
    16   14   19 ar   
    17   14   15 ar   
    18   15   16 ar   
    19   16   17 ar   
    20   17   18 ar   
    21   17   20 1    
    22   18   19 ar   
    23   20   21 1    
    24   21   25 1    
    25   21   22 2    
    26   22   23 1    
    27   23   24 2    
    28   24   25 1    
@<TRIPOS>SUBSTRUCTURE
     1 UNK         1 GROUP             0       ****    0 ROOT    
