@<TRIPOS>MOLECULE
ZINC78753206
22   25    1
SMALL
USER_CHARGES


@<TRIPOS>ATOM
      1 C1          2.7391    4.3650    0.0000 C.3       1 UNK         0.0000 
      2 O2          1.6816    3.6064    0.0000 O.3       1 UNK         0.0000 
      3 C3          1.8092    2.3104    0.0000 C.3       1 UNK         0.0000 
      4 C4          0.7608    1.5615    0.0000 C.2       1 UNK         0.0000 
      5 S5         -0.4729    1.9574    0.0000 S.3       1 UNK         0.0000 
      6 C6         -1.2526    0.9237    0.0000 C         1 UNK         0.0000 
      7 C7         -0.4765   -0.1322    0.0000 C.2       1 UNK         0.0000 
      8 N8          0.7353    0.2525    0.0000 N.2       1 UNK         0.0000 
      9 C9         -0.9011   -1.3660    0.0000 C.3       1 UNK         0.0000 
     10 N10        -2.1614   -1.6635    0.0000 N.2       1 UNK         0.0000 
     11 C11        -2.5829   -2.8990    0.0000 C.2       1 UNK         0.0000 
     12 N12        -1.6886   -3.8493    0.0000 N.2       1 UNK         0.0000 
     13 C13        -0.4122   -3.5926    0.0000 C.3       1 UNK         0.0000 
     14 N14        -0.0436   -2.3495    0.0000 N.3       1 UNK         0.0000 
     15 C15         1.2916   -2.3469    0.0000 C.3       1 UNK         0.0000 
     16 C16         2.1299   -1.3868    0.0000 C.3       1 UNK         0.0000 
     17 C17         3.4141   -1.6901    0.0000 C.3       1 UNK         0.0000 
     18 C18         3.8421   -2.9180    0.0000 C.3       1 UNK         0.0000 
     19 C19         2.9640   -3.8506    0.0000 C.3       1 UNK         0.0000 
     20 C20         1.6691   -3.5926    0.0000 C.3       1 UNK         0.0000 
     21 N21         0.6333   -4.3650    0.0000 N.3       1 UNK         0.0000 
     22 N22        -3.8421   -3.1721    0.0000 N.2       1 UNK         0.0000 
@<TRIPOS>BOND
     1    1    2 1    
     2    2    3 1    
     3    3    4 1    
     4    4    8 2    
     5    4    5 1    
     6    5    6 1    
     7    6    7 2    
     8    7    8 1    
     9    7    9 1    
    10    9   14 1    
    11    9   10 1    
    12   10   11 1    
    13   11   12 2    
    14   11   22 1    
    15   12   13 1    
    16   13   21 1    
    17   13   14 1    
    18   14   15 1    
    19   15   20 1    
    20   15   16 1    
    21   16   17 1    
    22   17   18 1    
    23   18   19 1    
    24   19   20 1    
    25   20   21 1    
@<TRIPOS>SUBSTRUCTURE
     1 UNK         1 GROUP             0       ****    0 ROOT    
