@<TRIPOS>MOLECULE
ZINC68462442
27   29    1
SMALL
USER_CHARGES


@<TRIPOS>ATOM
      1 C1          1.1087   -7.7999    0.0000 C.3       1 UNK         0.0000 
      2 O2         -0.0159   -7.1478    0.0000 O.3       1 UNK         0.0000 
      3 C3         -0.0133   -5.8478    0.0000 C.ar      1 UNK         0.0000 
      4 C4          1.1139   -5.1998    0.0000 C.ar      1 UNK         0.0000 
      5 C5          1.1167   -3.8998    0.0000 C.ar      1 UNK         0.0000 
      6 C6         -0.0081   -3.2477    0.0000 C.ar      1 UNK         0.0000 
      7 C7         -1.1349   -3.8954    0.0000 C.ar      1 UNK         0.0000 
      8 C8         -1.1378   -5.1954    0.0000 C.ar      1 UNK         0.0000 
      9 C9         -2.2649   -5.8431    0.0000 C.3       1 UNK         0.0000 
     10 S10        -0.0052   -1.9477    0.0000 S.o2      1 UNK         0.0000 
     11 O11        -1.3052   -1.9451    0.0000 O.2       1 UNK         0.0000 
     12 O12         1.2948   -1.9503    0.0000 O.2       1 UNK         0.0000 
     13 N13        -0.0026   -0.6477    0.0000 N.2       1 UNK         0.0000 
     14 C14         1.1245   -0.0000    0.0000 C.3       1 UNK         0.0000 
     15 C15         1.1271    1.3000    0.0000 C.ar      1 UNK         0.0000 
     16 C16         0.0026    1.9524    0.0000 C.ar      1 UNK         0.0000 
     17 C17         0.0052    3.2524    0.0000 C.ar      1 UNK         0.0000 
     18 C18         1.1323    3.9001    0.0000 C.ar      1 UNK         0.0000 
     19 C19         2.2568    3.2477    0.0000 C.ar      1 UNK         0.0000 
     20 C20         2.2542    1.9477    0.0000 C.ar      1 UNK         0.0000 
     21 N21         1.1349    5.2001    0.0000 N.pl3     1 UNK         0.0000 
     22 C22         0.0104    5.8522    0.0000 C.3       1 UNK         0.0000 
     23 C23         0.0130    7.1522    0.0000 C.3       1 UNK         0.0000 
     24 O24         1.1401    7.7999    0.0000 O.3       1 UNK         0.0000 
     25 C25         2.2649    7.1478    0.0000 C.3       1 UNK         0.0000 
     26 C26         2.2620    5.8478    0.0000 C.3       1 UNK         0.0000 
     27 C27         2.2490   -0.6521    0.0000 C.3       1 UNK         0.0000 
@<TRIPOS>BOND
     1    1    2 1    
     2    2    3 1    
     3    3    8 ar   
     4    3    4 ar   
     5    4    5 ar   
     6    5    6 ar   
     7    6    7 ar   
     8    6   10 1    
     9    7    8 ar   
    10    8    9 1    
    11   10   11 2    
    12   10   12 2    
    13   10   13 1    
    14   13   14 1    
    15   14   15 1    
    16   14   27 1    
    17   15   20 ar   
    18   15   16 ar   
    19   16   17 ar   
    20   17   18 ar   
    21   18   19 ar   
    22   18   21 1    
    23   19   20 ar   
    24   21   26 1    
    25   21   22 1    
    26   22   23 1    
    27   23   24 1    
    28   24   25 1    
    29   25   26 1    
@<TRIPOS>SUBSTRUCTURE
     1 UNK         1 GROUP             0       ****    0 ROOT    
