@<TRIPOS>MOLECULE
ZINC95059170
21   24    1
SMALL
USER_CHARGES


@<TRIPOS>ATOM
      1 O1          0.9703    0.3286    0.0000 O.2       1 UNK         0.0000 
      2 C2         -0.1201   -0.3788    0.0000 C.2       1 UNK         0.0000 
      3 C3         -1.2782    0.2116    0.0000 C.ar      1 UNK         0.0000 
      4 N4         -2.4367   -0.3780    0.0000 N.ar      1 UNK         0.0000 
      5 N5         -3.3559    0.5416    0.0000 N.pl3     1 UNK         0.0000 
      6 C6         -2.7651    1.6996    0.0000 C.ar      1 UNK         0.0000 
      7 N7         -1.4812    1.4958    0.0000 N.ar      1 UNK         0.0000 
      8 C8         -3.3548    2.8582    0.0000 C.3       1 UNK         0.0000 
      9 C9         -4.4448    3.5667    0.0000 C.3       1 UNK         0.0000 
     10 C10        -3.2862    4.1564    0.0000 C.3       1 UNK         0.0000 
     11 N11        -0.0525   -1.6770    0.0000 N.am      1 UNK         0.0000 
     12 C12         1.1055   -2.2677    0.0000 C.3       1 UNK         0.0000 
     13 C13         1.1731   -3.5659    0.0000 C.3       1 UNK         0.0000 
     14 C14         2.3312   -4.1564    0.0000 C.3       1 UNK         0.0000 
     15 S15         3.4219   -3.4489    0.0000 S.3       1 UNK         0.0000 
     16 C16         3.3540   -2.1507    0.0000 C.ar      1 UNK         0.0000 
     17 C17         2.1960   -1.5600    0.0000 C.ar      1 UNK         0.0000 
     18 C18         2.1284   -0.2618    0.0000 C.ar      1 UNK         0.0000 
     19 C19         3.2191    0.4456    0.0000 C.ar      1 UNK         0.0000 
     20 C20         4.3772   -0.1448    0.0000 C.ar      1 UNK         0.0000 
     21 C21         4.4448   -1.4430    0.0000 C.ar      1 UNK         0.0000 
@<TRIPOS>BOND
     1    1    2 2    
     2    2    3 1    
     3    2   11 am   BACKBONE|DICT|INTERRES
     4    3    7 ar   
     5    3    4 ar   
     6    4    5 ar   
     7    5    6 ar   
     8    6    7 ar   
     9    6    8 1    
    10    8   10 1    
    11    8    9 1    
    12    9   10 1    
    13   11   12 1    
    14   12   17 1    
    15   12   13 1    
    16   13   14 1    
    17   14   15 1    
    18   15   16 1    
    19   16   21 ar   
    20   16   17 ar   
    21   17   18 ar   
    22   18   19 ar   
    23   19   20 ar   
    24   20   21 ar   
@<TRIPOS>SUBSTRUCTURE
     1 UNK         1 GROUP             0       ****    0 ROOT    
