@<TRIPOS>MOLECULE
ZINC43130064
20   22    1
SMALL
USER_CHARGES


@<TRIPOS>ATOM
      1 O1          1.6820    1.8200    0.0000 O.2       1 UNK         0.0000 
      2 C2          1.6867    0.5200    0.0000 C.2       1 UNK         0.0000 
      3 N3          0.5633   -0.1342    0.0000 N.am      1 UNK         0.0000 
      4 C4          0.5680   -1.4341    0.0000 C.3       1 UNK         0.0000 
      5 C5         -0.5555   -2.0880    0.0000 C.3       1 UNK         0.0000 
      6 N6         -1.6836   -1.4422    0.0000 N.3       1 UNK         0.0000 
      7 C7         -1.6885   -0.1422    0.0000 C.3       1 UNK         0.0000 
      8 C8         -0.5648    0.5119    0.0000 C.3       1 UNK         0.0000 
      9 C9         -2.8070   -2.0961    0.0000 C.3       1 UNK         0.0000 
     10 C10        -3.9352   -1.4503    0.0000 C.2       1 UNK         0.0000 
     11 C11        -5.1210   -1.9830    0.0000 C         1 UNK         0.0000 
     12 S12        -5.9943   -1.0202    0.0000 S.3       1 UNK         0.0000 
     13 C13        -5.3483    0.1079    0.0000 C         1 UNK         0.0000 
     14 C14        -4.0758   -0.1578    0.0000 C         1 UNK         0.0000 
     15 N15         2.8148   -0.1261    0.0000 N.am      1 UNK         0.0000 
     16 C16         3.9386    0.5283    0.0000 C.2       1 UNK         0.0000 
     17 N17         4.0693    1.8215    0.0000 N.2       1 UNK         0.0000 
     18 N18         5.3399    2.0961    0.0000 N.2       1 UNK         0.0000 
     19 C19         5.9943    0.9726    0.0000 C         1 UNK         0.0000 
     20 S20         5.1275    0.0034    0.0000 S.3       1 UNK         0.0000 
@<TRIPOS>BOND
     1    1    2 2    
     2    2    3 am   BACKBONE|DICT|INTERRES
     3    2   15 am   BACKBONE|DICT|INTERRES
     4    3    8 1    
     5    3    4 1    
     6    4    5 1    
     7    5    6 1    
     8    6    7 1    
     9    6    9 1    
    10    7    8 1    
    11    9   10 1    
    12   10   14 1    
    13   10   11 2    
    14   11   12 1    
    15   12   13 1    
    16   13   14 2    
    17   15   16 am   BACKBONE|DICT|INTERRES
    18   16   20 1    
    19   16   17 2    
    20   17   18 1    
    21   18   19 2    
    22   19   20 1    
@<TRIPOS>SUBSTRUCTURE
     1 UNK         1 GROUP             0       ****    0 ROOT    
