@<TRIPOS>MOLECULE
ZINC84600297
21   22    1
SMALL
USER_CHARGES


@<TRIPOS>ATOM
      1 C1          3.9442    5.1984    0.0000 C.3       1 UNK         0.0000 
      2 O2          2.8179    4.5491    0.0000 O.3       1 UNK         0.0000 
      3 C3          2.8169    3.2491    0.0000 C.ar      1 UNK         0.0000 
      4 C4          3.9422    2.5983    0.0000 C.ar      1 UNK         0.0000 
      5 C5          3.9411    1.2983    0.0000 C.ar      1 UNK         0.0000 
      6 C6          2.8148    0.6491    0.0000 C.ar      1 UNK         0.0000 
      7 C7          1.6895    1.3001    0.0000 C.ar      1 UNK         0.0000 
      8 C8          1.6905    2.5999    0.0000 C.ar      1 UNK         0.0000 
      9 C9          0.5632    0.6509    0.0000 C.3       1 UNK         0.0000 
     10 C10         0.5621   -0.6491    0.0000 C.3       1 UNK         0.0000 
     11 C11        -0.5642   -1.2983    0.0000 C.2       1 UNK         0.0000 
     12 O12        -1.6895   -0.6473    0.0000 O.2       1 UNK         0.0000 
     13 N13        -0.5652   -2.5983    0.0000 N.am      1 UNK         0.0000 
     14 C14        -1.6916   -3.2473    0.0000 C.ar      1 UNK         0.0000 
     15 C15        -2.8169   -2.5965    0.0000 C.ar      1 UNK         0.0000 
     16 C16        -3.9432   -3.2455    0.0000 C.ar      1 UNK         0.0000 
     17 N17        -3.9442   -4.5455    0.0000 N.ar      1 UNK         0.0000 
     18 C18        -2.8190   -5.1966    0.0000 C.ar      1 UNK         0.0000 
     19 C19        -1.6926   -4.5473    0.0000 C.ar      1 UNK         0.0000 
     20 C20        -0.5673   -5.1984    0.0000 C.3       1 UNK         0.0000 
     21 C21        -0.5621    1.3017    0.0000 C.3       1 UNK         0.0000 
@<TRIPOS>BOND
     1    1    2 1    
     2    2    3 1    
     3    3    8 ar   
     4    3    4 ar   
     5    4    5 ar   
     6    5    6 ar   
     7    6    7 ar   
     8    7    8 ar   
     9    7    9 1    
    10    9   10 1    
    11    9   21 1    
    12   10   11 1    
    13   11   12 2    
    14   11   13 am   BACKBONE|DICT|INTERRES
    15   13   14 1    
    16   14   19 ar   
    17   14   15 ar   
    18   15   16 ar   
    19   16   17 ar   
    20   17   18 ar   
    21   18   19 ar   
    22   19   20 1    
@<TRIPOS>SUBSTRUCTURE
     1 UNK         1 GROUP             0       ****    0 ROOT    
