@<TRIPOS>MOLECULE
ZINC08521111
18   20    1
SMALL
USER_CHARGES


@<TRIPOS>ATOM
      1 O1         -0.5623    2.5360    0.0000 O.2       1 UNK         0.0000 
      2 C2         -0.5628    1.2358    0.0000 C.2       1 UNK         0.0000 
      3 N3         -1.6891    0.5863    0.0000 N.am      1 UNK         0.0000 
      4 C4         -2.8146    1.2371    0.0000 C.2       1 UNK         0.0000 
      5 N5         -2.9496    2.5298    0.0000 N.2       1 UNK         0.0000 
      6 C6         -4.2212    2.8010    0.0000 C         1 UNK         0.0000 
      7 C7         -4.8715    1.6754    0.0000 C         1 UNK         0.0000 
      8 S8         -4.0023    0.7088    0.0000 S.3       1 UNK         0.0000 
      9 C9          0.5625    0.5853    0.0000 C.3       1 UNK         0.0000 
     10 S10         1.6888    1.2347    0.0000 S.3       1 UNK         0.0000 
     11 C11         2.8144    0.5840    0.0000 C.ar      1 UNK         0.0000 
     12 N12         4.0023    1.1123    0.0000 N.2       1 UNK         0.0000 
     13 N13         4.8715    0.1456    0.0000 N.2       1 UNK         0.0000 
     14 C14         4.2210   -0.9799    0.0000 C.ar      1 UNK         0.0000 
     15 N15         2.9493   -0.7088    0.0000 N.pl3     1 UNK         0.0000 
     16 N16         2.2991   -1.8343    0.0000 N.2       1 UNK         0.0000 
     17 C17         3.1682   -2.8010    0.0000 C.ar      1 UNK         0.0000 
     18 N18         4.3559   -2.2727    0.0000 N.pl3     1 UNK         0.0000 
@<TRIPOS>BOND
     1    1    2 2    
     2    2    3 am   BACKBONE|DICT|INTERRES
     3    2    9 1    
     4    3    4 am   BACKBONE|DICT|INTERRES
     5    4    8 1    
     6    4    5 2    
     7    5    6 1    
     8    6    7 2    
     9    7    8 1    
    10    9   10 1    
    11   10   11 1    
    12   11   15 ar   
    13   11   12 ar   
    14   12   13 ar   
    15   13   14 ar   
    16   14   18 ar   
    17   14   15 ar   
    18   15   16 ar   
    19   16   17 ar   
    20   17   18 ar   
@<TRIPOS>SUBSTRUCTURE
     1 UNK         1 GROUP             0       ****    0 ROOT    
