@<TRIPOS>MOLECULE
ZINC93867700
23   24    1
SMALL
USER_CHARGES


@<TRIPOS>ATOM
      1 O1         -6.5983    2.8994    0.0000 O.3       1 UNK         0.0000 
      2 C2         -5.3050    3.0318    0.0000 C.3       1 UNK         0.0000 
      3 C3         -4.5434    1.9782    0.0000 C.2       1 UNK         0.0000 
      4 C4         -4.9487    0.7423    0.0000 C         1 UNK         0.0000 
      5 C5         -3.8988   -0.0239    0.0000 C         1 UNK         0.0000 
      6 C6         -2.8447    0.7369    0.0000 C.2       1 UNK         0.0000 
      7 O7         -3.2438    1.9743    0.0000 O.3       1 UNK         0.0000 
      8 C8         -1.6099    0.3320    0.0000 C.3       1 UNK         0.0000 
      9 N9         -1.3428   -0.9402    0.0000 N.4       1 UNK         0.0000 
     10 C10        -2.2152   -1.9041    0.0000 C.3       1 UNK         0.0000 
     11 C11        -1.5685   -3.0318    0.0000 C.3       1 UNK         0.0000 
     12 C12        -0.2960   -2.7647    0.0000 C.3       1 UNK         0.0000 
     13 C13        -0.1567   -1.4722    0.0000 C.3       1 UNK         0.0000 
     14 C14         0.9710   -0.8253    0.0000 C.3       1 UNK         0.0000 
     15 N15         2.0948   -1.4784    0.0000 N.am      1 UNK         0.0000 
     16 C16         3.2225   -0.8315    0.0000 C.2       1 UNK         0.0000 
     17 O17         3.2264    0.4685    0.0000 O.2       1 UNK         0.0000 
     18 O18         4.3465   -1.4844    0.0000 O.3       1 UNK         0.0000 
     19 C19         5.4742   -0.8375    0.0000 C.3       1 UNK         0.0000 
     20 C20         4.8273    0.2902    0.0000 C.3       1 UNK         0.0000 
     21 C21         6.1274    0.2863    0.0000 C.3       1 UNK         0.0000 
     22 C22         6.5983   -1.4907    0.0000 C.3       1 UNK         0.0000 
     23 C23         2.0912   -2.7785    0.0000 C.3       1 UNK         0.0000 
@<TRIPOS>BOND
     1    1    2 1    
     2    2    3 1    
     3    3    7 1    
     4    3    4 2    
     5    4    5 1    
     6    5    6 2    
     7    6    7 1    
     8    6    8 1    
     9    8    9 1    
    10    9   13 1    
    11    9   10 1    
    12   10   11 1    
    13   11   12 1    
    14   12   13 1    
    15   13   14 1    
    16   14   15 1    
    17   15   16 am   BACKBONE|DICT|INTERRES
    18   15   23 1    
    19   16   17 2    
    20   16   18 1    
    21   18   19 1    
    22   19   20 1    
    23   19   21 1    
    24   19   22 1    
@<TRIPOS>SUBSTRUCTURE
     1 UNK         1 GROUP             0       ****    0 ROOT    
