@<TRIPOS>MOLECULE
ZINC81617703
25   26    1
SMALL
USER_CHARGES


@<TRIPOS>ATOM
      1 C1         -5.6292   -0.8545    0.0000 C.3       1 UNK         0.0000 
      2 C2         -4.5047   -1.5068    0.0000 C.3       1 UNK         0.0000 
      3 C3         -3.3776   -0.8589    0.0000 C.3       1 UNK         0.0000 
      4 C4         -2.2530   -1.5113    0.0000 C.3       1 UNK         0.0000 
      5 C5         -1.1259   -0.8636    0.0000 C.3       1 UNK         0.0000 
      6 N6         -0.0014   -1.5157    0.0000 N.am      1 UNK         0.0000 
      7 C7          1.1257   -0.8680    0.0000 C.2       1 UNK         0.0000 
      8 O8          1.1283    0.4320    0.0000 O.2       1 UNK         0.0000 
      9 C9          2.2502   -1.5201    0.0000 C.3       1 UNK         0.0000 
     10 C10         2.2476   -2.8201    0.0000 C.3       1 UNK         0.0000 
     11 C11         3.3721   -3.4725    0.0000 C.3       1 UNK         0.0000 
     12 C12         4.4992   -2.8248    0.0000 C.2       1 UNK         0.0000 
     13 O13         5.6237   -3.4769    0.0000 O.2       1 UNK         0.0000 
     14 N14         4.5021   -1.5248    0.0000 N.am      1 UNK         0.0000 
     15 C15         3.3773   -0.8724    0.0000 C.3       1 UNK         0.0000 
     16 C16         3.3799    0.4278    0.0000 C.ar      1 UNK         0.0000 
     17 C17         2.3297    1.1935    0.0000 C.ar      1 UNK         0.0000 
     18 N18         2.7340    2.4291    0.0000 N.2       1 UNK         0.0000 
     19 N19         4.0341    2.4267    0.0000 N.pl3     1 UNK         0.0000 
     20 C20         4.4334    1.1894    0.0000 C.ar      1 UNK         0.0000 
     21 C21         4.8003    3.4769    0.0000 C.3       1 UNK         0.0000 
     22 C22         5.6292   -0.8769    0.0000 C.3       1 UNK         0.0000 
     23 C23        -1.6054   -2.6384    0.0000 C.3       1 UNK         0.0000 
     24 C24        -2.9054   -2.6358    0.0000 C.3       1 UNK         0.0000 
     25 C25        -4.5073   -2.8069    0.0000 C.3       1 UNK         0.0000 
@<TRIPOS>BOND
     1    1    2 1    
     2    2    3 1    
     3    2   25 1    
     4    3    4 1    
     5    4    5 1    
     6    4   23 1    
     7    4   24 1    
     8    5    6 1    
     9    6    7 am   BACKBONE|DICT|INTERRES
    10    7    8 2    
    11    7    9 1    
    12    9   15 1    
    13    9   10 1    
    14   10   11 1    
    15   11   12 1    
    16   12   13 2    
    17   12   14 am   BACKBONE|DICT|INTERRES
    18   14   15 1    
    19   14   22 1    
    20   15   16 1    
    21   16   20 ar   
    22   16   17 ar   
    23   17   18 ar   
    24   18   19 ar   
    25   19   20 ar   
    26   19   21 1    
@<TRIPOS>SUBSTRUCTURE
     1 UNK         1 GROUP             0       ****    0 ROOT    
