@<TRIPOS>MOLECULE
ZINC91993064
19   20    1
SMALL
USER_CHARGES


@<TRIPOS>ATOM
      1 C1          3.9476   -3.8046    0.0000 C.3       1 UNK         0.0000 
      2 C2          2.8205   -3.1570    0.0000 C.3       1 UNK         0.0000 
      3 C3          1.6960   -3.8090    0.0000 C.3       1 UNK         0.0000 
      4 C4          0.5689   -3.1614    0.0000 C.3       1 UNK         0.0000 
      5 C5          0.5663   -1.8614    0.0000 C.3       1 UNK         0.0000 
      6 N6          1.6908   -1.2090    0.0000 N.am      1 UNK         0.0000 
      7 C7          2.8179   -1.8569    0.0000 C.3       1 UNK         0.0000 
      8 C8          1.6882    0.0907    0.0000 C.2       1 UNK         0.0000 
      9 O9          2.8127    0.7431    0.0000 O.2       1 UNK         0.0000 
     10 N10         0.5611    0.7387    0.0000 N.am      1 UNK         0.0000 
     11 C11        -0.5634    0.0863    0.0000 C.3       1 UNK         0.0000 
     12 C12        -1.6905    0.7340    0.0000 C.3       1 UNK         0.0000 
     13 N13        -1.6931    2.0340    0.0000 N.pl3     1 UNK         0.0000 
     14 C14        -0.5686    2.6863    0.0000 C.3       1 UNK         0.0000 
     15 C15         0.5585    2.0387    0.0000 C.3       1 UNK         0.0000 
     16 S16        -2.8205    2.6819    0.0000 S.o2      1 UNK         0.0000 
     17 O17        -2.1726    3.8090    0.0000 O.2       1 UNK         0.0000 
     18 O18        -3.4682    1.5548    0.0000 O.2       1 UNK         0.0000 
     19 N19        -3.9476    3.3296    0.0000 N.2       1 UNK         0.0000 
@<TRIPOS>BOND
     1    1    2 1    
     2    2    7 1    
     3    2    3 1    
     4    3    4 1    
     5    4    5 1    
     6    5    6 1    
     7    6    7 1    
     8    6    8 am   BACKBONE|DICT|INTERRES
     9    8    9 2    
    10    8   10 am   BACKBONE|DICT|INTERRES
    11   10   15 1    
    12   10   11 1    
    13   11   12 1    
    14   12   13 1    
    15   13   14 1    
    16   13   16 1    
    17   14   15 1    
    18   16   17 2    
    19   16   18 2    
    20   16   19 1    
@<TRIPOS>SUBSTRUCTURE
     1 UNK         1 GROUP             0       ****    0 ROOT    
