@<TRIPOS>MOLECULE
ZINC93257323
21   23    1
SMALL
USER_CHARGES


@<TRIPOS>ATOM
      1 O1         -1.7806    1.6430    0.0000 O.2       1 UNK         0.0000 
      2 C2         -1.7853    0.3432    0.0000 C.2       1 UNK         0.0000 
      3 C3         -2.9135   -0.3029    0.0000 C.3       1 UNK         0.0000 
      4 N4         -4.0372    0.3513    0.0000 N.pl3     1 UNK         0.0000 
      5 N5         -5.2265   -0.1734    0.0000 N.2       1 UNK         0.0000 
      6 N6         -6.0931    0.7959    0.0000 N.2       1 UNK         0.0000 
      7 C7         -5.4386    1.9193    0.0000 C.ar      1 UNK         0.0000 
      8 C8         -4.1680    1.6445    0.0000 C.ar      1 UNK         0.0000 
      9 N9         -0.6618   -0.3110    0.0000 N.am      1 UNK         0.0000 
     10 C10         0.4663    0.3349    0.0000 C.ar      1 UNK         0.0000 
     11 C11         0.4710    1.6349    0.0000 C.ar      1 UNK         0.0000 
     12 C12         1.5992    2.2810    0.0000 C.ar      1 UNK         0.0000 
     13 N13         2.7226    1.6268    0.0000 N.ar      1 UNK         0.0000 
     14 C14         2.7180    0.3268    0.0000 C.ar      1 UNK         0.0000 
     15 N15         1.5898   -0.3190    0.0000 N.ar      1 UNK         0.0000 
     16 C16         3.8414   -0.3271    0.0000 C.ar      1 UNK         0.0000 
     17 C17         3.8367   -1.6271    0.0000 C.ar      1 UNK         0.0000 
     18 C18         4.9602   -2.2810    0.0000 C.ar      1 UNK         0.0000 
     19 C19         6.0884   -1.6352    0.0000 C.ar      1 UNK         0.0000 
     20 C20         6.0931   -0.3351    0.0000 C.ar      1 UNK         0.0000 
     21 C21         4.9696    0.3188    0.0000 C.ar      1 UNK         0.0000 
@<TRIPOS>BOND
     1    1    2 2    
     2    2    3 1    
     3    2    9 am   BACKBONE|DICT|INTERRES
     4    3    4 1    
     5    4    8 ar   
     6    4    5 ar   
     7    5    6 ar   
     8    6    7 ar   
     9    7    8 ar   
    10    9   10 1    
    11   10   15 ar   
    12   10   11 ar   
    13   11   12 ar   
    14   12   13 ar   
    15   13   14 ar   
    16   14   15 ar   
    17   14   16 1    
    18   16   21 ar   
    19   16   17 ar   
    20   17   18 ar   
    21   18   19 ar   
    22   19   20 ar   
    23   20   21 ar   
@<TRIPOS>SUBSTRUCTURE
     1 UNK         1 GROUP             0       ****    0 ROOT    
