@<TRIPOS>MOLECULE
ZINC92783774
24   26    1
SMALL
USER_CHARGES


@<TRIPOS>ATOM
      1 C1          1.7742   -0.3254    0.0000 C.3       1 UNK         0.0000 
      2 C2          0.6479   -0.9746    0.0000 C.3       1 UNK         0.0000 
      3 N3         -0.4774   -0.3236    0.0000 N.4       1 UNK         0.0000 
      4 C4         -0.4763    0.9764    0.0000 C.3       1 UNK         0.0000 
      5 C5          0.6500    1.6254    0.0000 C.2       1 UNK         0.0000 
      6 C6          1.7753    0.9746    0.0000 C         1 UNK         0.0000 
      7 N7          2.9016    1.6236    0.0000 N.4       1 UNK         0.0000 
      8 C8          4.0269    0.9728    0.0000 C.3       1 UNK         0.0000 
      9 C9          2.9026    2.9236    0.0000 C.2       1 UNK         0.0000 
     10 O10         4.0290    3.5728    0.0000 O.2       1 UNK         0.0000 
     11 N11         1.7774    3.5746    0.0000 N.4       1 UNK         0.0000 
     12 C12         0.6510    2.9254    0.0000 C.2       1 UNK         0.0000 
     13 O13        -0.4742    3.5764    0.0000 O.2       1 UNK         0.0000 
     14 C14         1.7784    4.8746    0.0000 C.3       1 UNK         0.0000 
     15 C15        -1.6037   -0.9728    0.0000 C.3       1 UNK         0.0000 
     16 C16        -2.7290   -0.3220    0.0000 C.3       1 UNK         0.0000 
     17 C17        -3.3779    0.8046    0.0000 C.3       1 UNK         0.0000 
     18 C18        -4.0290   -0.3210    0.0000 C.3       1 UNK         0.0000 
     19 C19         0.6469   -2.2746    0.0000 C.ar      1 UNK         0.0000 
     20 C20        -0.4794   -2.9236    0.0000 C.ar      1 UNK         0.0000 
     21 C21        -0.4805   -4.2236    0.0000 C.ar      1 UNK         0.0000 
     22 C22         0.6448   -4.8746    0.0000 C.ar      1 UNK         0.0000 
     23 C23         1.7711   -4.2254    0.0000 C.ar      1 UNK         0.0000 
     24 C24         1.7722   -2.9254    0.0000 C.ar      1 UNK         0.0000 
@<TRIPOS>BOND
     1    1    2 1    
     2    2    3 1    
     3    2   19 1    
     4    3    4 1    
     5    3   15 1    
     6    4    5 1    
     7    5   12 1    
     8    5    6 2    
     9    6    7 1    
    10    7    8 1    
    11    7    9 1    
    12    9   10 2    
    13    9   11 1    
    14   11   12 1    
    15   11   14 1    
    16   12   13 2    
    17   15   16 1    
    18   16   18 1    
    19   16   17 1    
    20   17   18 1    
    21   19   24 ar   
    22   19   20 ar   
    23   20   21 ar   
    24   21   22 ar   
    25   22   23 ar   
    26   23   24 ar   
@<TRIPOS>SUBSTRUCTURE
     1 UNK         1 GROUP             0       ****    0 ROOT    
