@<TRIPOS>MOLECULE
ZINC72926795
22   23    1
SMALL
USER_CHARGES


@<TRIPOS>ATOM
      1 C1          2.2313    2.2781    0.0000 C.3       1 UNK         0.0000 
      2 C2          1.1060    1.6273    0.0000 C.3       1 UNK         0.0000 
      3 C3          1.1071    0.3273    0.0000 C.3       1 UNK         0.0000 
      4 C4          2.2336   -0.3221    0.0000 C.2       1 UNK         0.0000 
      5 S5          2.3701   -1.6146    0.0000 S.3       1 UNK         0.0000 
      6 C6          3.6421   -1.8839    0.0000 C         1 UNK         0.0000 
      7 C7          4.2908   -0.7574    0.0000 C.2       1 UNK         0.0000 
      8 N8          3.4205    0.2083    0.0000 N.2       1 UNK         0.0000 
      9 C9          5.5840   -0.6206    0.0000 C.3       1 UNK         0.0000 
     10 F10         5.7210   -1.9133    0.0000 F         1 UNK         0.0000 
     11 F11         6.7719   -1.1482    0.0000 F         1 UNK         0.0000 
     12 F12         6.1115    0.5676    0.0000 F         1 UNK         0.0000 
     13 N13        -0.0182   -0.3237    0.0000 N.4       1 UNK         0.0000 
     14 C14        -1.1445    0.3255    0.0000 C.3       1 UNK         0.0000 
     15 C15        -2.2698   -0.3255    0.0000 C.ar      1 UNK         0.0000 
     16 C16        -3.3961    0.3237    0.0000 C.ar      1 UNK         0.0000 
     17 C17        -4.5214   -0.3273    0.0000 C.ar      1 UNK         0.0000 
     18 C18        -4.5203   -1.6271    0.0000 C.ar      1 UNK         0.0000 
     19 C19        -3.3940   -2.2763    0.0000 C.ar      1 UNK         0.0000 
     20 C20        -2.2687   -1.6255    0.0000 C.ar      1 UNK         0.0000 
     21 S21        -5.6456   -2.2781    0.0000 S.3       1 UNK         0.0000 
     22 C22        -6.7719   -1.6289    0.0000 C.3       1 UNK         0.0000 
@<TRIPOS>BOND
     1    1    2 1    
     2    2    3 1    
     3    3    4 1    
     4    3   13 1    
     5    4    8 2    
     6    4    5 1    
     7    5    6 1    
     8    6    7 2    
     9    7    8 1    
    10    7    9 1    
    11    9   10 1    
    12    9   11 1    
    13    9   12 1    
    14   13   14 1    
    15   14   15 1    
    16   15   20 ar   
    17   15   16 ar   
    18   16   17 ar   
    19   17   18 ar   
    20   18   19 ar   
    21   18   21 1    
    22   19   20 ar   
    23   21   22 1    
@<TRIPOS>SUBSTRUCTURE
     1 UNK         1 GROUP             0       ****    0 ROOT    
