@<TRIPOS>MOLECULE
ZINC92413388
24   26    1
SMALL
USER_CHARGES


@<TRIPOS>ATOM
      1 O1          0.3713    3.3800    0.0000 O.2       1 UNK         0.0000 
      2 C2         -0.7532    2.7277    0.0000 C.2       1 UNK         0.0000 
      3 C3         -1.8803    3.3754    0.0000 C.3       1 UNK         0.0000 
      4 C4         -3.0670    2.8444    0.0000 C.3       1 UNK         0.0000 
      5 C5         -3.9388    3.8088    0.0000 C.3       1 UNK         0.0000 
      6 O6         -3.2911    4.9359    0.0000 O.3       1 UNK         0.0000 
      7 C7         -2.0189    4.6681    0.0000 C.3       1 UNK         0.0000 
      8 C8         -1.0546    5.5399    0.0000 C.3       1 UNK         0.0000 
      9 N9         -0.7506    1.4277    0.0000 N.am      1 UNK         0.0000 
     10 C10         0.3765    0.7800    0.0000 C.ar      1 UNK         0.0000 
     11 C11         1.5010    1.4324    0.0000 C.ar      1 UNK         0.0000 
     12 C12         2.6281    0.7844    0.0000 C.ar      1 UNK         0.0000 
     13 C13         2.6310   -0.5156    0.0000 C.ar      1 UNK         0.0000 
     14 C14         1.5062   -1.1677    0.0000 C.ar      1 UNK         0.0000 
     15 C15         0.3791   -0.5200    0.0000 C.ar      1 UNK         0.0000 
     16 C16        -0.7454   -1.1721    0.0000 C.3       1 UNK         0.0000 
     17 S17         1.5088   -2.4677    0.0000 S.o2      1 UNK         0.0000 
     18 O18         0.2090   -2.4703    0.0000 O.2       1 UNK         0.0000 
     19 O19         2.8088   -2.4651    0.0000 O.2       1 UNK         0.0000 
     20 N20         1.5114   -3.7677    0.0000 N.2       1 UNK         0.0000 
     21 C21         2.6388   -4.4154    0.0000 C.3       1 UNK         0.0000 
     22 C22         3.2909   -5.5399    0.0000 C.3       1 UNK         0.0000 
     23 C23         3.9388   -4.4128    0.0000 C.3       1 UNK         0.0000 
     24 C24         3.7578   -1.1633    0.0000 C.3       1 UNK         0.0000 
@<TRIPOS>BOND
     1    1    2 2    
     2    2    3 1    
     3    2    9 am   BACKBONE|DICT|INTERRES
     4    3    7 1    
     5    3    4 1    
     6    4    5 1    
     7    5    6 1    
     8    6    7 1    
     9    7    8 1    
    10    9   10 1    
    11   10   15 ar   
    12   10   11 ar   
    13   11   12 ar   
    14   12   13 ar   
    15   13   14 ar   
    16   13   24 1    
    17   14   15 ar   
    18   14   17 1    
    19   15   16 1    
    20   17   18 2    
    21   17   19 2    
    22   17   20 1    
    23   20   21 1    
    24   21   23 1    
    25   21   22 1    
    26   22   23 1    
@<TRIPOS>SUBSTRUCTURE
     1 UNK         1 GROUP             0       ****    0 ROOT    
