@<TRIPOS>MOLECULE
ZINC39868907
29   31    1
SMALL
USER_CHARGES


@<TRIPOS>ATOM
      1 C1         -7.0786    3.7558    0.0000 C.3       1 UNK         0.0000 
      2 C2         -5.9510    3.1089    0.0000 C.3       1 UNK         0.0000 
      3 C3         -4.8270    3.7620    0.0000 C.3       1 UNK         0.0000 
      4 C4         -3.6993    3.1151    0.0000 C.3       1 UNK         0.0000 
      5 O5         -2.5753    3.7682    0.0000 O.3       1 UNK         0.0000 
      6 C6         -1.4477    3.1213    0.0000 C.ar      1 UNK         0.0000 
      7 C7         -0.3237    3.7745    0.0000 C.ar      1 UNK         0.0000 
      8 Cl8        -0.3273    5.0745    0.0000 Cl        1 UNK         0.0000 
      9 C9          0.8039    3.1278    0.0000 C.ar      1 UNK         0.0000 
     10 C10         0.8078    1.8278    0.0000 C.ar      1 UNK         0.0000 
     11 C11        -0.3164    1.1747    0.0000 C.ar      1 UNK         0.0000 
     12 C12        -1.4441    1.8213    0.0000 C.ar      1 UNK         0.0000 
     13 Cl13       -2.5681    1.1685    0.0000 Cl        1 UNK         0.0000 
     14 C14         1.9355    1.1809    0.0000 C.2       1 UNK         0.0000 
     15 O15         3.0595    1.8341    0.0000 O.2       1 UNK         0.0000 
     16 N16         1.9391   -0.1191    0.0000 N.am      1 UNK         0.0000 
     17 C17         3.0667   -0.7660    0.0000 C.2       1 UNK         0.0000 
     18 S18         4.2529   -0.2340    0.0000 S.3       1 UNK         0.0000 
     19 C19         5.1255   -1.1976    0.0000 C.2       1 UNK         0.0000 
     20 C20         4.4786   -2.3252    0.0000 C.2       1 UNK         0.0000 
     21 C21         3.2064   -2.0584    0.0000 C.2       1 UNK         0.0000 
     22 C22         2.2425   -2.9310    0.0000 C.2       1 UNK         0.0000 
     23 O23         1.0049   -2.5327    0.0000 O.2       1 UNK         0.0000 
     24 O24         2.5166   -4.2019    0.0000 O.3       1 UNK         0.0000 
     25 C25         1.5530   -5.0745    0.0000 C.3       1 UNK         0.0000 
     26 C26         5.1317   -3.4492    0.0000 C.3       1 UNK         0.0000 
     27 C27         6.4317   -3.4456    0.0000 C.3       1 UNK         0.0000 
     28 C28         7.0786   -2.3179    0.0000 C.3       1 UNK         0.0000 
     29 C29         6.4255   -1.1939    0.0000 C.3       1 UNK         0.0000 
@<TRIPOS>BOND
     1    1    2 1    
     2    2    3 1    
     3    3    4 1    
     4    4    5 1    
     5    5    6 1    
     6    6   12 ar   
     7    6    7 ar   
     8    7    8 1    
     9    7    9 ar   
    10    9   10 ar   
    11   10   11 ar   
    12   10   14 1    
    13   11   12 ar   
    14   12   13 1    
    15   14   15 2    
    16   14   16 am   BACKBONE|DICT|INTERRES
    17   16   17 am   BACKBONE|DICT|INTERRES
    18   17   21 2    
    19   17   18 1    
    20   18   19 1    
    21   19   29 1    
    22   19   20 2    
    23   20   21 1    
    24   20   26 1    
    25   21   22 1    
    26   22   23 2    
    27   22   24 1    
    28   24   25 1    
    29   26   27 1    
    30   27   28 1    
    31   28   29 1    
@<TRIPOS>SUBSTRUCTURE
     1 UNK         1 GROUP             0       ****    0 ROOT    
