@<TRIPOS>MOLECULE
ZINC01467691
22   23    1
SMALL
USER_CHARGES


@<TRIPOS>ATOM
      1 C1          5.0651   -0.6217    0.0000 C.3       1 UNK         0.0000 
      2 O2          3.9416   -1.2756    0.0000 O.3       1 UNK         0.0000 
      3 C3          2.8135   -0.6297    0.0000 C.2       1 UNK         0.0000 
      4 O4          2.8088    0.6703    0.0000 O.2       1 UNK         0.0000 
      5 C5          1.6900   -1.2839    0.0000 C.3       1 UNK         0.0000 
      6 N6          0.5619   -0.6378    0.0000 N.am      1 UNK         0.0000 
      7 C7         -0.5616   -1.2919    0.0000 C.2       1 UNK         0.0000 
      8 O8         -0.5569   -2.5917    0.0000 O.2       1 UNK         0.0000 
      9 C9         -1.6900   -0.6458    0.0000 C.3       1 UNK         0.0000 
     10 C10        -2.8135   -1.3000    0.0000 C.ar      1 UNK         0.0000 
     11 C11        -3.9416   -0.6539    0.0000 C.ar      1 UNK         0.0000 
     12 C12        -5.0651   -1.3081    0.0000 C.ar      1 UNK         0.0000 
     13 C13        -5.0604   -2.6081    0.0000 C.ar      1 UNK         0.0000 
     14 C14        -3.9323   -3.2539    0.0000 C.ar      1 UNK         0.0000 
     15 C15        -2.8085   -2.6000    0.0000 C.ar      1 UNK         0.0000 
     16 C16        -1.6947    0.6542    0.0000 C.ar      1 UNK         0.0000 
     17 C17        -0.5710    1.3081    0.0000 C.ar      1 UNK         0.0000 
     18 C18        -0.5759    2.6081    0.0000 C.ar      1 UNK         0.0000 
     19 C19        -1.7040    3.2539    0.0000 C.ar      1 UNK         0.0000 
     20 C20        -2.8275    2.6000    0.0000 C.ar      1 UNK         0.0000 
     21 C21        -2.8228    1.3000    0.0000 C.ar      1 UNK         0.0000 
     22 C22         1.6947   -2.5836    0.0000 C.3       1 UNK         0.0000 
@<TRIPOS>BOND
     1    1    2 1    
     2    2    3 1    
     3    3    4 2    
     4    3    5 1    
     5    5    6 1    
     6    5   22 1    
     7    6    7 am   BACKBONE|DICT|INTERRES
     8    7    8 2    
     9    7    9 1    
    10    9   10 1    
    11    9   16 1    
    12   10   15 ar   
    13   10   11 ar   
    14   11   12 ar   
    15   12   13 ar   
    16   13   14 ar   
    17   14   15 ar   
    18   16   21 ar   
    19   16   17 ar   
    20   17   18 ar   
    21   18   19 ar   
    22   19   20 ar   
    23   20   21 ar   
@<TRIPOS>SUBSTRUCTURE
     1 UNK         1 GROUP             0       ****    0 ROOT    
