@<TRIPOS>MOLECULE
ZINC78845123
18   19    1
SMALL
USER_CHARGES


@<TRIPOS>ATOM
      1 C1          5.0537   -0.6271    0.0000 C.3       1 UNK         0.0000 
      2 N2          3.7691   -0.8286    0.0000 N.am      1 UNK         0.0000 
      3 C3          3.1776   -1.9861    0.0000 C.3       1 UNK         0.0000 
      4 C4          1.8934   -1.7805    0.0000 C.3       1 UNK         0.0000 
      5 C5          1.6927   -0.4966    0.0000 C.3       1 UNK         0.0000 
      6 C6          2.8515    0.0926    0.0000 C.2       1 UNK         0.0000 
      7 O7          3.0569    1.3756    0.0000 O.2       1 UNK         0.0000 
      8 N8          0.5349    0.0957    0.0000 N.am      1 UNK         0.0000 
      9 C9         -0.5565   -0.6105    0.0000 C.2       1 UNK         0.0000 
     10 O10        -0.4905   -1.9089    0.0000 O.2       1 UNK         0.0000 
     11 C11        -1.7138   -0.0185    0.0000 C.ar      1 UNK         0.0000 
     12 C12        -2.8050   -0.7249    0.0000 C.ar      1 UNK         0.0000 
     13 C13        -3.9625   -0.1329    0.0000 C.ar      1 UNK         0.0000 
     14 Br14       -5.0537   -0.8393    0.0000 Br        1 UNK         0.0000 
     15 C15        -4.0285    1.1653    0.0000 C.ar      1 UNK         0.0000 
     16 C16        -2.9371    1.8717    0.0000 C.ar      1 UNK         0.0000 
     17 C17        -1.7798    1.2797    0.0000 C.ar      1 UNK         0.0000 
     18 F18        -0.6883    1.9861    0.0000 F         1 UNK         0.0000 
@<TRIPOS>BOND
     1    1    2 1    
     2    2    6 am   BACKBONE|DICT|INTERRES
     3    2    3 1    
     4    3    4 1    
     5    4    5 1    
     6    5    6 1    
     7    5    8 1    
     8    6    7 2    
     9    8    9 am   BACKBONE|DICT|INTERRES
    10    9   10 2    
    11    9   11 1    
    12   11   17 ar   
    13   11   12 ar   
    14   12   13 ar   
    15   13   14 1    
    16   13   15 ar   
    17   15   16 ar   
    18   16   17 ar   
    19   17   18 1    
@<TRIPOS>SUBSTRUCTURE
     1 UNK         1 GROUP             0       ****    0 ROOT    
