@<TRIPOS>MOLECULE
ZINC90728115
22   23    1
SMALL
USER_CHARGES


@<TRIPOS>ATOM
      1 O1         -1.7723    3.5891    0.0000 O.2       1 UNK         0.0000 
      2 C2         -1.7770    2.2891    0.0000 C.2       1 UNK         0.0000 
      3 N3         -0.6535    1.6349    0.0000 N.am      1 UNK         0.0000 
      4 C4          0.4746    2.2810    0.0000 C.3       1 UNK         0.0000 
      5 C5          1.5981    1.6268    0.0000 C.1       1 UNK         0.0000 
      6 C6          2.7218    0.9729    0.0000 C.1       1 UNK         0.0000 
      7 C7          3.8453    0.3188    0.0000 C.3       1 UNK         0.0000 
      8 O8          3.8406   -0.9813    0.0000 O.3       1 UNK         0.0000 
      9 C9          4.9641   -1.6352    0.0000 C.ar      1 UNK         0.0000 
     10 C10         6.0923   -0.9893    0.0000 C.ar      1 UNK         0.0000 
     11 C11         7.2157   -1.6432    0.0000 C.ar      1 UNK         0.0000 
     12 C12         7.2111   -2.9432    0.0000 C.ar      1 UNK         0.0000 
     13 C13         6.0829   -3.5891    0.0000 C.ar      1 UNK         0.0000 
     14 C14         4.9592   -2.9352    0.0000 C.ar      1 UNK         0.0000 
     15 Cl15        3.8310   -3.5810    0.0000 Cl        1 UNK         0.0000 
     16 C16        -2.9051    1.6430    0.0000 C.3       1 UNK         0.0000 
     17 C17        -4.0286    2.2971    0.0000 C.3       1 UNK         0.0000 
     18 C18        -5.1568    1.6513    0.0000 C.3       1 UNK         0.0000 
     19 C19        -5.2974    0.3588    0.0000 C.3       1 UNK         0.0000 
     20 C20        -6.5699    0.0931    0.0000 C.3       1 UNK         0.0000 
     21 C21        -7.2157    1.2212    0.0000 C.3       1 UNK         0.0000 
     22 C22        -6.3424    2.1840    0.0000 C.3       1 UNK         0.0000 
@<TRIPOS>BOND
     1    1    2 2    
     2    2    3 am   BACKBONE|DICT|INTERRES
     3    2   16 1    
     4    3    4 1    
     5    4    5 1    
     6    5    6 3    
     7    6    7 1    
     8    7    8 1    
     9    8    9 1    
    10    9   14 ar   
    11    9   10 ar   
    12   10   11 ar   
    13   11   12 ar   
    14   12   13 ar   
    15   13   14 ar   
    16   14   15 1    
    17   16   17 1    
    18   17   18 1    
    19   18   22 1    
    20   18   19 1    
    21   19   20 1    
    22   20   21 1    
    23   21   22 1    
@<TRIPOS>SUBSTRUCTURE
     1 UNK         1 GROUP             0       ****    0 ROOT    
