@<TRIPOS>MOLECULE
ZINC36657018
30   33    1
SMALL
USER_CHARGES


@<TRIPOS>ATOM
      1 C1         -8.0574   -4.1091    0.0000 C.3       1 UNK         0.0000 
      2 C2         -6.7751   -3.9725    0.0000 C.ar      1 UNK         0.0000 
      3 C3         -6.2156   -2.8059    0.0000 C.ar      1 UNK         0.0000 
      4 C4         -4.9343   -2.6309    0.0000 C.ar      1 UNK         0.0000 
      5 C5         -4.1477   -3.7108    0.0000 C.ar      1 UNK         0.0000 
      6 C6         -4.7069   -4.8782    0.0000 C.ar      1 UNK         0.0000 
      7 C7         -5.9887   -5.0527    0.0000 C.ar      1 UNK         0.0000 
      8 C8         -2.8716   -3.5628    0.0000 C.3       1 UNK         0.0000 
      9 C9         -2.3532   -2.3783    0.0000 C.2       1 UNK         0.0000 
     10 N10        -3.0035   -1.2442    0.0000 N.2       1 UNK         0.0000 
     11 N11        -2.1404   -0.2808    0.0000 N.2       1 UNK         0.0000 
     12 C12        -0.9429   -0.8028    0.0000 C.2       1 UNK         0.0000 
     13 O13        -1.0821   -2.0982    0.0000 O.3       1 UNK         0.0000 
     14 N14         0.1758   -0.1536    0.0000 N.am      1 UNK         0.0000 
     15 C15         0.1787    1.1506    0.0000 C.2       1 UNK         0.0000 
     16 O16        -0.9473    1.8016    0.0000 O.2       1 UNK         0.0000 
     17 C17         1.2987    1.7980    0.0000 C.ar      1 UNK         0.0000 
     18 C18         1.3073    3.1058    0.0000 C.ar      1 UNK         0.0000 
     19 C19         2.4221    3.7493    0.0000 C.ar      1 UNK         0.0000 
     20 C20         3.5546    3.1053    0.0000 C.ar      1 UNK         0.0000 
     21 C21         3.5505    1.8027    0.0000 C.ar      1 UNK         0.0000 
     22 C22         2.4380    1.1553    0.0000 C.ar      1 UNK         0.0000 
     23 C23         4.6645    3.7517    0.0000 C.2       1 UNK         0.0000 
     24 O24         4.6586    5.0527    0.0000 O.2       1 UNK         0.0000 
     25 C25         5.8077    3.1110    0.0000 C.ar      1 UNK         0.0000 
     26 C26         6.9186    3.7582    0.0000 C.ar      1 UNK         0.0000 
     27 C27         8.0574    3.1173    0.0000 C.ar      1 UNK         0.0000 
     28 C28         8.0488    1.8092    0.0000 C.ar      1 UNK         0.0000 
     29 C29         6.9366    1.1662    0.0000 C.ar      1 UNK         0.0000 
     30 C30         5.8036    1.8084    0.0000 C.ar      1 UNK         0.0000 
@<TRIPOS>BOND
     1    1    2 1    
     2    2    7 ar   
     3    2    3 ar   
     4    3    4 ar   
     5    4    5 ar   
     6    5    6 ar   
     7    5    8 1    
     8    6    7 ar   
     9    8    9 1    
    10    9   13 1    
    11    9   10 2    
    12   10   11 1    
    13   11   12 2    
    14   12   13 1    
    15   12   14 am   BACKBONE|DICT|INTERRES
    16   14   15 am   BACKBONE|DICT|INTERRES
    17   15   16 2    
    18   15   17 1    
    19   17   22 ar   
    20   17   18 ar   
    21   18   19 ar   
    22   19   20 ar   
    23   20   21 ar   
    24   20   23 1    
    25   21   22 ar   
    26   23   24 2    
    27   23   25 1    
    28   25   30 ar   
    29   25   26 ar   
    30   26   27 ar   
    31   27   28 ar   
    32   28   29 ar   
    33   29   30 ar   
@<TRIPOS>SUBSTRUCTURE
     1 UNK         1 GROUP             0       ****    0 ROOT    
