@<TRIPOS>MOLECULE
ZINC70018141
18   18    1
SMALL
USER_CHARGES


@<TRIPOS>ATOM
      1 C1         -5.6291   -0.0363    0.0000 C.3       1 UNK         0.0000 
      2 O2         -4.5010   -0.6824    0.0000 O.3       1 UNK         0.0000 
      3 C3         -3.3775   -0.0282    0.0000 C.3       1 UNK         0.0000 
      4 C4         -2.2493   -0.6743    0.0000 C.3       1 UNK         0.0000 
      5 C5         -1.1258   -0.0202    0.0000 C.3       1 UNK         0.0000 
      6 N6          0.0023   -0.6660    0.0000 N.am      1 UNK         0.0000 
      7 C7          1.1258   -0.0121    0.0000 C.2       1 UNK         0.0000 
      8 O8          1.1211    1.2879    0.0000 O.2       1 UNK         0.0000 
      9 N9          2.2540   -0.6579    0.0000 N.am      1 UNK         0.0000 
     10 C10         3.3775   -0.0040    0.0000 C.ar      1 UNK         0.0000 
     11 C11         3.3728    1.2960    0.0000 C.ar      1 UNK         0.0000 
     12 C12         4.4963    1.9499    0.0000 C.ar      1 UNK         0.0000 
     13 C13         5.6244    1.3041    0.0000 C.ar      1 UNK         0.0000 
     14 C14         5.6291    0.0040    0.0000 C.ar      1 UNK         0.0000 
     15 C15         4.5056   -0.6499    0.0000 C.ar      1 UNK         0.0000 
     16 C16         4.5103   -1.9499    0.0000 C.3       1 UNK         0.0000 
     17 O17        -1.5954   -1.7978    0.0000 O.3       1 UNK         0.0000 
     18 C18        -2.8954   -1.8025    0.0000 C.3       1 UNK         0.0000 
@<TRIPOS>BOND
     1    1    2 1    
     2    2    3 1    
     3    3    4 1    
     4    4    5 1    
     5    4   17 1    
     6    4   18 1    
     7    5    6 1    
     8    6    7 am   BACKBONE|DICT|INTERRES
     9    7    8 2    
    10    7    9 am   BACKBONE|DICT|INTERRES
    11    9   10 1    
    12   10   15 ar   
    13   10   11 ar   
    14   11   12 ar   
    15   12   13 ar   
    16   13   14 ar   
    17   14   15 ar   
    18   15   16 1    
@<TRIPOS>SUBSTRUCTURE
     1 UNK         1 GROUP             0       ****    0 ROOT    
