@<TRIPOS>MOLECULE
ZINC84076111
27   28    1
SMALL
USER_CHARGES


@<TRIPOS>ATOM
      1 C1         -0.0196    7.1544    0.0000 C.3       1 UNK         0.0000 
      2 O2         -0.0170    5.8544    0.0000 O.3       1 UNK         0.0000 
      3 C3          1.1101    5.2067    0.0000 C.2       1 UNK         0.0000 
      4 O4          2.2346    5.8588    0.0000 O.2       1 UNK         0.0000 
      5 C5          1.1127    3.9067    0.0000 C.3       1 UNK         0.0000 
      6 O6          2.2398    3.2588    0.0000 O.3       1 UNK         0.0000 
      7 C7          2.2424    1.9590    0.0000 C.ar      1 UNK         0.0000 
      8 C8          1.1179    1.3066    0.0000 C.ar      1 UNK         0.0000 
      9 C9         -0.0092    1.9543    0.0000 C.3       1 UNK         0.0000 
     10 C10         1.1207    0.0066    0.0000 C.ar      1 UNK         0.0000 
     11 C11         2.2476   -0.6410    0.0000 C.ar      1 UNK         0.0000 
     12 C12         3.3724    0.0111    0.0000 C.ar      1 UNK         0.0000 
     13 C13         3.3695    1.3111    0.0000 C.ar      1 UNK         0.0000 
     14 C14         4.4943    1.9634    0.0000 C.3       1 UNK         0.0000 
     15 C15         2.2505   -1.9411    0.0000 C.2       1 UNK         0.0000 
     16 O16         3.3776   -2.5887    0.0000 O.2       1 UNK         0.0000 
     17 N17         1.1259   -2.5934    0.0000 N.am      1 UNK         0.0000 
     18 C18         1.1285   -3.8932    0.0000 C.3       1 UNK         0.0000 
     19 C19         0.0040   -4.5455    0.0000 C.ar      1 UNK         0.0000 
     20 C20        -1.1231   -3.8978    0.0000 C.ar      1 UNK         0.0000 
     21 C21        -2.2479   -4.5499    0.0000 C.ar      1 UNK         0.0000 
     22 C22        -2.2450   -5.8500    0.0000 C.ar      1 UNK         0.0000 
     23 C23        -1.1179   -6.4976    0.0000 C.ar      1 UNK         0.0000 
     24 C24         0.0066   -5.8455    0.0000 C.ar      1 UNK         0.0000 
     25 C25        -3.3695   -6.5023    0.0000 C.1       1 UNK         0.0000 
     26 N26        -4.4943   -7.1544    0.0000 N.1       1 UNK         0.0000 
     27 C27         2.2557   -4.5411    0.0000 C.3       1 UNK         0.0000 
@<TRIPOS>BOND
     1    1    2 1    
     2    2    3 1    
     3    3    4 2    
     4    3    5 1    
     5    5    6 1    
     6    6    7 1    
     7    7   13 ar   
     8    7    8 ar   
     9    8    9 1    
    10    8   10 ar   
    11   10   11 ar   
    12   11   12 ar   
    13   11   15 1    
    14   12   13 ar   
    15   13   14 1    
    16   15   16 2    
    17   15   17 am   BACKBONE|DICT|INTERRES
    18   17   18 1    
    19   18   19 1    
    20   18   27 1    
    21   19   24 ar   
    22   19   20 ar   
    23   20   21 ar   
    24   21   22 ar   
    25   22   23 ar   
    26   22   25 1    
    27   23   24 ar   
    28   25   26 3    
@<TRIPOS>SUBSTRUCTURE
     1 UNK         1 GROUP             0       ****    0 ROOT    
