@<TRIPOS>MOLECULE
ZINC14095225
34   36    1
SMALL
USER_CHARGES


@<TRIPOS>ATOM
      1 C1         -8.4425    0.0281    0.0000 C.3       1 UNK         0.0000 
      2 C2         -7.3144    0.6742    0.0000 C.3       1 UNK         0.0000 
      3 C3         -6.1909    0.0200    0.0000 C.3       1 UNK         0.0000 
      4 C4         -5.0628    0.6661    0.0000 C.3       1 UNK         0.0000 
      5 N5         -3.9393    0.0120    0.0000 N.4       1 UNK         0.0000 
      6 N6         -2.8111    0.6581    0.0000 N.2       1 UNK         0.0000 
      7 C7         -1.6874    0.0039    0.0000 C.2       1 UNK         0.0000 
      8 C8         -0.5595    0.6500    0.0000 C.2       1 UNK         0.0000 
      9 O9         -0.5546    1.9498    0.0000 O.2       1 UNK         0.0000 
     10 N10         0.5642   -0.0042    0.0000 N.am      1 UNK         0.0000 
     11 C11         1.6921    0.6417    0.0000 C.ar      1 UNK         0.0000 
     12 C12         2.8158   -0.0122    0.0000 C.ar      1 UNK         0.0000 
     13 C13         3.9440    0.6336    0.0000 C.ar      1 UNK         0.0000 
     14 C14         3.9487    1.9336    0.0000 C.ar      1 UNK         0.0000 
     15 C15         2.8252    2.5878    0.0000 C.ar      1 UNK         0.0000 
     16 C16         1.6970    1.9417    0.0000 C.ar      1 UNK         0.0000 
     17 O17         0.5736    2.5959    0.0000 O.3       1 UNK         0.0000 
     18 C18         0.5782    3.8959    0.0000 C.3       1 UNK         0.0000 
     19 S19         5.0674   -0.0203    0.0000 S.o2      1 UNK         0.0000 
     20 O20         5.7214    1.1032    0.0000 O.2       1 UNK         0.0000 
     21 O21         4.4133   -1.1438    0.0000 O.2       1 UNK         0.0000 
     22 N22         6.1909   -0.6742    0.0000 N.pl3     1 UNK         0.0000 
     23 C23         6.1862   -1.9742    0.0000 C.3       1 UNK         0.0000 
     24 C24         7.3097   -2.6284    0.0000 C.3       1 UNK         0.0000 
     25 C25         7.3191   -0.0283    0.0000 C.3       1 UNK         0.0000 
     26 C26         8.4425   -0.6822    0.0000 C.3       1 UNK         0.0000 
     27 C27        -1.6924   -1.2961    0.0000 C.ar      1 UNK         0.0000 
     28 C28        -2.8205   -1.9420    0.0000 C.ar      1 UNK         0.0000 
     29 C29        -3.9440   -1.2881    0.0000 C.2       1 UNK         0.0000 
     30 O30        -5.0721   -1.9339    0.0000 O.2       1 UNK         0.0000 
     31 C31        -2.8252   -3.2420    0.0000 C.ar      1 UNK         0.0000 
     32 C32        -1.7017   -3.8959    0.0000 C.ar      1 UNK         0.0000 
     33 C33        -0.5736   -3.2500    0.0000 C.ar      1 UNK         0.0000 
     34 C34        -0.5686   -1.9500    0.0000 C.ar      1 UNK         0.0000 
@<TRIPOS>BOND
     1    1    2 1    
     2    2    3 1    
     3    3    4 1    
     4    4    5 1    
     5    5   29 1    
     6    5    6 1    
     7    6    7 2    
     8    7    8 1    
     9    7   27 1    
    10    8    9 2    
    11    8   10 am   BACKBONE|DICT|INTERRES
    12   10   11 1    
    13   11   16 ar   
    14   11   12 ar   
    15   12   13 ar   
    16   13   14 ar   
    17   13   19 1    
    18   14   15 ar   
    19   15   16 ar   
    20   16   17 1    
    21   17   18 1    
    22   19   20 2    
    23   19   21 2    
    24   19   22 1    
    25   22   23 1    
    26   22   25 1    
    27   23   24 1    
    28   25   26 1    
    29   27   34 ar   
    30   27   28 ar   
    31   28   29 1    
    32   28   31 ar   
    33   29   30 2    
    34   31   32 ar   
    35   32   33 ar   
    36   33   34 ar   
@<TRIPOS>SUBSTRUCTURE
     1 UNK         1 GROUP             0       ****    0 ROOT    
