@<TRIPOS>MOLECULE
ZINC92847918
21   22    1
SMALL
USER_CHARGES


@<TRIPOS>ATOM
      1 C1         -6.1055   -2.9045    0.0000 C         1 UNK         0.0000 
      2 C2         -4.9774   -3.5504    0.0000 C         1 UNK         0.0000 
      3 C3         -3.8539   -2.8965    0.0000 C.3       1 UNK         0.0000 
      4 O4         -2.7258   -3.5423    0.0000 O.3       1 UNK         0.0000 
      5 C5         -1.6024   -2.8884    0.0000 C.ar      1 UNK         0.0000 
      6 C6         -1.6070   -1.5884    0.0000 C.ar      1 UNK         0.0000 
      7 C7         -0.4836   -0.9343    0.0000 C.ar      1 UNK         0.0000 
      8 C8          0.6445   -1.5804    0.0000 C.ar      1 UNK         0.0000 
      9 C9          0.6495   -2.8804    0.0000 C.ar      1 UNK         0.0000 
     10 C10        -0.4742   -3.5342    0.0000 C.ar      1 UNK         0.0000 
     11 Cl11       -0.4696   -4.8342    0.0000 Cl        1 UNK         0.0000 
     12 C12         1.7680   -0.9262    0.0000 C.3       1 UNK         0.0000 
     13 N13         1.7633    0.3737    0.0000 N.4       1 UNK         0.0000 
     14 C14         2.8872    1.0279    0.0000 C.3       1 UNK         0.0000 
     15 C15         4.0762    0.5030    0.0000 C.3       1 UNK         0.0000 
     16 C16         4.9428    1.4725    0.0000 C.3       1 UNK         0.0000 
     17 C17         4.2884    2.5957    0.0000 C.3       1 UNK         0.0000 
     18 C18         3.0178    2.3211    0.0000 C.3       1 UNK         0.0000 
     19 N19         4.8130    3.7854    0.0000 N.4       1 UNK         0.0000 
     20 C20         4.0450    4.8342    0.0000 C.3       1 UNK         0.0000 
     21 C21         6.1055    3.9261    0.0000 C.3       1 UNK         0.0000 
@<TRIPOS>BOND
     1    1    2 2    
     2    2    3 1    
     3    3    4 1    
     4    4    5 1    
     5    5   10 ar   
     6    5    6 ar   
     7    6    7 ar   
     8    7    8 ar   
     9    8    9 ar   
    10    8   12 1    
    11    9   10 ar   
    12   10   11 1    
    13   12   13 1    
    14   13   14 1    
    15   14   18 1    
    16   14   15 1    
    17   15   16 1    
    18   16   17 1    
    19   17   18 1    
    20   17   19 1    
    21   19   20 1    
    22   19   21 1    
@<TRIPOS>SUBSTRUCTURE
     1 UNK         1 GROUP             0       ****    0 ROOT    
