@<TRIPOS>MOLECULE
ZINC88814922
21   21    1
SMALL
USER_CHARGES


@<TRIPOS>ATOM
      1 C1         -0.5714   -4.2239    0.0000 C.3       1 UNK         0.0000 
      2 O2          0.5558   -3.5762    0.0000 O.3       1 UNK         0.0000 
      3 C3          0.5584   -2.2762    0.0000 C.2       1 UNK         0.0000 
      4 O4         -0.5662   -1.6239    0.0000 O.2       1 UNK         0.0000 
      5 C5          1.6855   -1.6283    0.0000 C.3       1 UNK         0.0000 
      6 O6          1.6881   -0.3285    0.0000 O.3       1 UNK         0.0000 
      7 C7          0.5636    0.3238    0.0000 C.2       1 UNK         0.0000 
      8 O8         -0.5636   -0.3238    0.0000 O.2       1 UNK         0.0000 
      9 C9          0.5662    1.6239    0.0000 C.3       1 UNK         0.0000 
     10 C10        -0.5584    2.2760    0.0000 C.ar      1 UNK         0.0000 
     11 C11        -1.6855    1.6283    0.0000 C.ar      1 UNK         0.0000 
     12 C12        -2.8100    2.2806    0.0000 C.ar      1 UNK         0.0000 
     13 C13        -2.8074    3.5807    0.0000 C.ar      1 UNK         0.0000 
     14 C14        -1.6803    4.2283    0.0000 C.ar      1 UNK         0.0000 
     15 C15        -0.5555    3.5760    0.0000 C.ar      1 UNK         0.0000 
     16 F16         0.5716    4.2239    0.0000 F         1 UNK         0.0000 
     17 F17        -3.9319    4.2327    0.0000 F         1 UNK         0.0000 
     18 C18         2.8100   -2.2806    0.0000 C.3       1 UNK         0.0000 
     19 C19         2.8074   -3.5807    0.0000 C.3       1 UNK         0.0000 
     20 C20         3.9319   -4.2327    0.0000 C.3       1 UNK         0.0000 
     21 C21         1.6803   -4.2283    0.0000 C.3       1 UNK         0.0000 
@<TRIPOS>BOND
     1    1    2 1    
     2    2    3 1    
     3    3    4 2    
     4    3    5 1    
     5    5    6 1    
     6    5   18 1    
     7    6    7 1    
     8    7    8 2    
     9    7    9 1    
    10    9   10 1    
    11   10   15 ar   
    12   10   11 ar   
    13   11   12 ar   
    14   12   13 ar   
    15   13   14 ar   
    16   13   17 1    
    17   14   15 ar   
    18   15   16 1    
    19   18   19 1    
    20   19   20 1    
    21   19   21 1    
@<TRIPOS>SUBSTRUCTURE
     1 UNK         1 GROUP             0       ****    0 ROOT    
