@<TRIPOS>MOLECULE
ZINC80431454
24   27    1
SMALL
USER_CHARGES


@<TRIPOS>ATOM
      1 C1         -4.4739   -4.9763    0.0000 C.3       1 UNK         0.0000 
      2 N2         -3.3475   -4.3271    0.0000 N.3       1 UNK         0.0000 
      3 C3         -2.2222   -4.9781    0.0000 C.3       1 UNK         0.0000 
      4 C4         -1.0959   -4.3289    0.0000 C.3       1 UNK         0.0000 
      5 O5         -1.0949   -3.0289    0.0000 O.3       1 UNK         0.0000 
      6 C6         -2.2202   -2.3781    0.0000 C.3       1 UNK         0.0000 
      7 C7         -3.3465   -3.0271    0.0000 C.3       1 UNK         0.0000 
      8 C8         -2.2191   -1.0781    0.0000 C.2       1 UNK         0.0000 
      9 O9         -3.3444   -0.4271    0.0000 O.2       1 UNK         0.0000 
     10 N10        -1.0928   -0.4289    0.0000 N.am      1 UNK         0.0000 
     11 C11        -1.0917    0.8711    0.0000 C.3       1 UNK         0.0000 
     12 C12         0.0346    1.5201    0.0000 C.3       1 UNK         0.0000 
     13 N13         1.1599    0.8693    0.0000 N.pl3     1 UNK         0.0000 
     14 C14         1.1588   -0.4307    0.0000 C.ar      1 UNK         0.0000 
     15 C15         0.0325   -1.0799    0.0000 C.3       1 UNK         0.0000 
     16 N16         2.3949   -0.8334    0.0000 N.2       1 UNK         0.0000 
     17 N17         3.1598    0.2178    0.0000 N.2       1 UNK         0.0000 
     18 C18         2.3964    1.2700    0.0000 C.ar      1 UNK         0.0000 
     19 C19         2.7992    2.5060    0.0000 C.ar      1 UNK         0.0000 
     20 C20         4.0711    2.7754    0.0000 C.ar      1 UNK         0.0000 
     21 C21         4.4739    4.0114    0.0000 C.ar      1 UNK         0.0000 
     22 C22         3.6047    4.9781    0.0000 C.ar      1 UNK         0.0000 
     23 C23         2.3330    4.7088    0.0000 C.ar      1 UNK         0.0000 
     24 C24         1.9300    3.4727    0.0000 C.ar      1 UNK         0.0000 
@<TRIPOS>BOND
     1    1    2 1    
     2    2    7 1    
     3    2    3 1    
     4    3    4 1    
     5    4    5 1    
     6    5    6 1    
     7    6    7 1    
     8    6    8 1    
     9    8    9 2    
    10    8   10 am   BACKBONE|DICT|INTERRES
    11   10   15 1    
    12   10   11 1    
    13   11   12 1    
    14   12   13 1    
    15   13   18 ar   
    16   13   14 ar   
    17   14   15 1    
    18   14   16 ar   
    19   16   17 ar   
    20   17   18 ar   
    21   18   19 1    
    22   19   24 ar   
    23   19   20 ar   
    24   20   21 ar   
    25   21   22 ar   
    26   22   23 ar   
    27   23   24 ar   
@<TRIPOS>SUBSTRUCTURE
     1 UNK         1 GROUP             0       ****    0 ROOT    
