@<TRIPOS>MOLECULE
ZINC72474789
25   27    1
SMALL
USER_CHARGES


@<TRIPOS>ATOM
      1 N1         -2.7239    2.7256    0.0000 N.4       1 UNK         0.0000 
      2 C2         -1.5994    3.3777    0.0000 C.3       1 UNK         0.0000 
      3 C3         -0.4723    2.7300    0.0000 C.2       1 UNK         0.0000 
      4 O4          0.6522    3.3824    0.0000 O.2       1 UNK         0.0000 
      5 N5         -0.4694    1.4300    0.0000 N.am      1 UNK         0.0000 
      6 C6         -1.5942    0.7779    0.0000 C.3       1 UNK         0.0000 
      7 C7         -1.5914   -0.5221    0.0000 C.3       1 UNK         0.0000 
      8 C8         -0.4642   -1.1698    0.0000 C.3       1 UNK         0.0000 
      9 C9          0.6603   -0.5177    0.0000 C.3       1 UNK         0.0000 
     10 C10         0.6577    0.7824    0.0000 C.3       1 UNK         0.0000 
     11 C11        -0.4616   -2.4698    0.0000 C.ar      1 UNK         0.0000 
     12 N12        -1.5862   -3.1221    0.0000 N.ar      1 UNK         0.0000 
     13 C13        -1.5836   -4.4222    0.0000 C.ar      1 UNK         0.0000 
     14 N14        -0.4564   -5.0698    0.0000 N.ar      1 UNK         0.0000 
     15 C15         0.6681   -4.4177    0.0000 C.ar      1 UNK         0.0000 
     16 C16         0.6655   -3.1177    0.0000 C.ar      1 UNK         0.0000 
     17 N17         1.7952   -5.0654    0.0000 N.pl3     1 UNK         0.0000 
     18 C18         1.9338   -6.3579    0.0000 C.3       1 UNK         0.0000 
     19 C19         3.2057   -6.6257    0.0000 C.3       1 UNK         0.0000 
     20 C20         3.8537   -5.4986    0.0000 C.3       1 UNK         0.0000 
     21 C21         2.9819   -4.5342    0.0000 C.3       1 UNK         0.0000 
     22 C22        -1.6020    4.6777    0.0000 C.3       1 UNK         0.0000 
     23 C23        -2.7291    5.3257    0.0000 C.3       1 UNK         0.0000 
     24 C24        -2.7317    6.6257    0.0000 C.3       1 UNK         0.0000 
     25 C25        -3.8537    4.6733    0.0000 C.3       1 UNK         0.0000 
@<TRIPOS>BOND
     1    1    2 1    
     2    2    3 1    
     3    2   22 1    
     4    3    4 2    
     5    3    5 am   BACKBONE|DICT|INTERRES
     6    5   10 1    
     7    5    6 1    
     8    6    7 1    
     9    7    8 1    
    10    8    9 1    
    11    8   11 1    
    12    9   10 1    
    13   11   16 ar   
    14   11   12 ar   
    15   12   13 ar   
    16   13   14 ar   
    17   14   15 ar   
    18   15   16 ar   
    19   15   17 1    
    20   17   21 1    
    21   17   18 1    
    22   18   19 1    
    23   19   20 1    
    24   20   21 1    
    25   22   23 1    
    26   23   24 1    
    27   23   25 1    
@<TRIPOS>SUBSTRUCTURE
     1 UNK         1 GROUP             0       ****    0 ROOT    
