@<TRIPOS>MOLECULE
ZINC71871737
23   26    1
SMALL
USER_CHARGES


@<TRIPOS>ATOM
      1 O1          0.3510    1.0628    0.0000 O.2       1 UNK         0.0000 
      2 C2          0.3500   -0.2373    0.0000 C.2       1 UNK         0.0000 
      3 N3          1.4753   -0.8881    0.0000 N.am      1 UNK         0.0000 
      4 C4          2.6017   -0.2391    0.0000 C.3       1 UNK         0.0000 
      5 C5          2.6027    1.0610    0.0000 C.3       1 UNK         0.0000 
      6 C6          3.7291    1.7102    0.0000 C.3       1 UNK         0.0000 
      7 N7          4.8544    1.0592    0.0000 N.4       1 UNK         0.0000 
      8 C8          4.8533   -0.2406    0.0000 C.3       1 UNK         0.0000 
      9 C9          3.7270   -0.8899    0.0000 C.3       1 UNK         0.0000 
     10 C10         5.9807    1.7084    0.0000 C.3       1 UNK         0.0000 
     11 C11         6.6315    2.8337    0.0000 C.3       1 UNK         0.0000 
     12 C12         7.2808    1.7074    0.0000 C.3       1 UNK         0.0000 
     13 C13        -0.7764   -0.8862    0.0000 C.3       1 UNK         0.0000 
     14 N14        -1.9017   -0.2354    0.0000 N.3       1 UNK         0.0000 
     15 C15        -3.0281   -0.8844    0.0000 C.3       1 UNK         0.0000 
     16 C16        -3.0291   -2.1845    0.0000 C.3       1 UNK         0.0000 
     17 C17        -4.1555   -2.8337    0.0000 C.3       1 UNK         0.0000 
     18 C18        -5.2808   -2.1829    0.0000 C.ar      1 UNK         0.0000 
     19 N19        -5.2798   -0.8826    0.0000 N.pl3     1 UNK         0.0000 
     20 C20        -4.1534   -0.2336    0.0000 C.3       1 UNK         0.0000 
     21 N21        -6.5158   -0.4801    0.0000 N.2       1 UNK         0.0000 
     22 C22        -7.2808   -1.5311    0.0000 C.ar      1 UNK         0.0000 
     23 N23        -6.5174   -2.5833    0.0000 N.2       1 UNK         0.0000 
@<TRIPOS>BOND
     1    1    2 2    
     2    2    3 am   BACKBONE|DICT|INTERRES
     3    2   13 1    
     4    3    4 1    
     5    4    9 1    
     6    4    5 1    
     7    5    6 1    
     8    6    7 1    
     9    7    8 1    
    10    7   10 1    
    11    8    9 1    
    12   10   12 1    
    13   10   11 1    
    14   11   12 1    
    15   13   14 1    
    16   14   15 1    
    17   15   20 1    
    18   15   16 1    
    19   16   17 1    
    20   17   18 1    
    21   18   23 ar   
    22   18   19 ar   
    23   19   20 1    
    24   19   21 ar   
    25   21   22 ar   
    26   22   23 ar   
@<TRIPOS>SUBSTRUCTURE
     1 UNK         1 GROUP             0       ****    0 ROOT    
