@<TRIPOS>MOLECULE
ZINC94274114
21   22    1
SMALL
USER_CHARGES


@<TRIPOS>ATOM
      1 C1         -3.9391   -1.3428    0.0000 C.3       1 UNK         0.0000 
      2 C2         -2.8127   -1.9918    0.0000 C.3       1 UNK         0.0000 
      3 N3         -1.6874   -1.3410    0.0000 N.4       1 UNK         0.0000 
      4 C4         -0.5611   -1.9902    0.0000 C.3       1 UNK         0.0000 
      5 C5          0.5642   -1.3392    0.0000 C.3       1 UNK         0.0000 
      6 C6          1.6905   -1.9884    0.0000 C.3       1 UNK         0.0000 
      7 C7          1.6916   -3.2884    0.0000 C.3       1 UNK         0.0000 
      8 C8          0.5663   -3.9392    0.0000 C.3       1 UNK         0.0000 
      9 C9         -0.5600   -3.2900    0.0000 C.3       1 UNK         0.0000 
     10 C10        -1.0036   -4.5120    0.0000 C.3       1 UNK         0.0000 
     11 C11        -1.8403   -3.0653    0.0000 C.3       1 UNK         0.0000 
     12 N12         0.5632   -0.0391    0.0000 N.4       1 UNK         0.0000 
     13 C13         1.6885    0.6117    0.0000 C.3       1 UNK         0.0000 
     14 C14         1.6874    1.9117    0.0000 C.ar      1 UNK         0.0000 
     15 C15         0.5611    2.5609    0.0000 C.ar      1 UNK         0.0000 
     16 C16         0.5600    3.8609    0.0000 C.ar      1 UNK         0.0000 
     17 C17         1.6853    4.5120    0.0000 C.ar      1 UNK         0.0000 
     18 C18         2.8117    3.8628    0.0000 C.ar      1 UNK         0.0000 
     19 C19         2.8127    2.5627    0.0000 C.ar      1 UNK         0.0000 
     20 C20         3.9391    1.9135    0.0000 C.3       1 UNK         0.0000 
     21 C21        -0.5632    0.6101    0.0000 C.3       1 UNK         0.0000 
@<TRIPOS>BOND
     1    1    2 1    
     2    2    3 1    
     3    3    4 1    
     4    4    9 1    
     5    4    5 1    
     6    5    6 1    
     7    5   12 1    
     8    6    7 1    
     9    7    8 1    
    10    8    9 1    
    11    9   10 1    
    12    9   11 1    
    13   12   13 1    
    14   12   21 1    
    15   13   14 1    
    16   14   19 ar   
    17   14   15 ar   
    18   15   16 ar   
    19   16   17 ar   
    20   17   18 ar   
    21   18   19 ar   
    22   19   20 1    
@<TRIPOS>SUBSTRUCTURE
     1 UNK         1 GROUP             0       ****    0 ROOT    
