@<TRIPOS>MOLECULE
ZINC91850914
19   19    1
SMALL
USER_CHARGES


@<TRIPOS>ATOM
      1 C1         -4.5032   -1.6290    0.0000 C.3       1 UNK         0.0000 
      2 C2         -3.3769   -2.2782    0.0000 C.3       1 UNK         0.0000 
      3 N3         -2.2516   -1.6272    0.0000 N.4       1 UNK         0.0000 
      4 C4         -2.2526   -0.3272    0.0000 C.3       1 UNK         0.0000 
      5 C5         -3.3790    0.3220    0.0000 C.3       1 UNK         0.0000 
      6 C6         -3.3800    1.6217    0.0000 C.3       1 UNK         0.0000 
      7 C7         -2.2547    2.2728    0.0000 C.3       1 UNK         0.0000 
      8 C8         -1.1284    1.6236    0.0000 C.3       1 UNK         0.0000 
      9 C9         -1.1274    0.3236    0.0000 C.3       1 UNK         0.0000 
     10 N10        -2.2558    3.5728    0.0000 N.4       1 UNK         0.0000 
     11 C11        -1.1253   -2.2764    0.0000 C.3       1 UNK         0.0000 
     12 C12         0.0000   -1.6254    0.0000 C.2       1 UNK         0.0000 
     13 O13        -0.0010   -0.3254    0.0000 O.2       1 UNK         0.0000 
     14 N14         1.1263   -2.2746    0.0000 N.am      1 UNK         0.0000 
     15 C15         2.2516   -1.6236    0.0000 C.3       1 UNK         0.0000 
     16 C16         3.3779   -2.2728    0.0000 C.3       1 UNK         0.0000 
     17 C17         4.5032   -1.6217    0.0000 C.3       1 UNK         0.0000 
     18 C18         3.3790   -3.5728    0.0000 C.3       1 UNK         0.0000 
     19 C19         2.2506   -0.3236    0.0000 C.3       1 UNK         0.0000 
@<TRIPOS>BOND
     1    1    2 1    
     2    2    3 1    
     3    3    4 1    
     4    3   11 1    
     5    4    9 1    
     6    4    5 1    
     7    5    6 1    
     8    6    7 1    
     9    7    8 1    
    10    7   10 1    
    11    8    9 1    
    12   11   12 1    
    13   12   13 2    
    14   12   14 am   BACKBONE|DICT|INTERRES
    15   14   15 1    
    16   15   16 1    
    17   15   19 1    
    18   16   17 1    
    19   16   18 1    
@<TRIPOS>SUBSTRUCTURE
     1 UNK         1 GROUP             0       ****    0 ROOT    
