@<TRIPOS>MOLECULE
ZINC21863011
35   40    1
SMALL
USER_CHARGES


@<TRIPOS>ATOM
      1 O1          1.3665   -1.0259    0.0000 O.2       1 UNK         0.0000 
      2 C2          0.1395   -1.1124    0.0000 C.2       1 UNK         0.0000 
      3 C3         -0.6643   -0.0388    0.0000 C.3       1 UNK         0.0000 
      4 C4         -1.5213   -0.9812    0.0000 C.3       1 UNK         0.0000 
      5 C5         -1.7611    0.6275    0.0000 C.3       1 UNK         0.0000 
      6 N6         -1.7706    1.8890    0.0000 N.pl3     1 UNK         0.0000 
      7 C7         -0.6055    2.5173    0.0000 C.ar      1 UNK         0.0000 
      8 C8          0.5056    1.8901    0.0000 C.2       1 UNK         0.0000 
      9 O9          1.6106    2.5170    0.0000 O.2       1 UNK         0.0000 
     10 N10         0.4694    0.6280    0.0000 N.am      1 UNK         0.0000 
     11 C11         1.5783   -0.0257    0.0000 C.3       1 UNK         0.0000 
     12 C12         2.6843    0.5833    0.0000 C.ar      1 UNK         0.0000 
     13 C13         3.8249   -0.1386    0.0000 C.ar      1 UNK         0.0000 
     14 C14         4.9754    0.5207    0.0000 C.ar      1 UNK         0.0000 
     15 C15         5.0195    1.8636    0.0000 C.ar      1 UNK         0.0000 
     16 C16         3.8658    2.5319    0.0000 C.ar      1 UNK         0.0000 
     17 C17         2.6861    1.9157    0.0000 C.ar      1 UNK         0.0000 
     18 O18         4.1600    3.8066    0.0000 O.3       1 UNK         0.0000 
     19 C19         5.4644    3.8882    0.0000 C.3       1 UNK         0.0000 
     20 O20         5.9959    2.6880    0.0000 O.3       1 UNK         0.0000 
     21 C21        -0.8782    3.7673    0.0000 C.ar      1 UNK         0.0000 
     22 C22        -2.1664    3.9357    0.0000 C.ar      1 UNK         0.0000 
     23 C23        -2.6853    2.7399    0.0000 C.ar      1 UNK         0.0000 
     24 C24        -3.9695    2.4847    0.0000 C.2       1 UNK         0.0000 
     25 C25        -4.4655    1.3124    0.0000 C         1 UNK         0.0000 
     26 C26        -5.7825    1.4657    0.0000 C         1 UNK         0.0000 
     27 C27        -5.9959    2.7185    0.0000 C         1 UNK         0.0000 
     28 O28        -4.8911    3.3822    0.0000 O.3       1 UNK         0.0000 
     29 N29        -0.3385   -2.2754    0.0000 N.am      1 UNK         0.0000 
     30 C30        -1.5382   -2.4574    0.0000 C.3       1 UNK         0.0000 
     31 C31        -2.0435   -3.7029    0.0000 C.3       1 UNK         0.0000 
     32 C32        -3.3528   -3.9357    0.0000 C.3       1 UNK         0.0000 
     33 C33        -4.1759   -2.8744    0.0000 C.3       1 UNK         0.0000 
     34 C34        -3.7192   -1.6102    0.0000 C.3       1 UNK         0.0000 
     35 C35        -2.4019   -1.4287    0.0000 C.3       1 UNK         0.0000 
@<TRIPOS>BOND
     1    1    2 2    
     2    2    3 1    
     3    2   29 am   BACKBONE|DICT|INTERRES
     4    3   10 1    
     5    3    4 1    
     6    3    5 1    
     7    5    6 1    
     8    6   23 ar   
     9    6    7 ar   
    10    7    8 1    
    11    7   21 ar   
    12    8    9 2    
    13    8   10 am   BACKBONE|DICT|INTERRES
    14   10   11 1    
    15   11   12 1    
    16   12   17 ar   
    17   12   13 ar   
    18   13   14 ar   
    19   14   15 ar   
    20   15   20 1    
    21   15   16 ar   
    22   16   17 ar   
    23   16   18 1    
    24   18   19 1    
    25   19   20 1    
    26   21   22 ar   
    27   22   23 ar   
    28   23   24 1    
    29   24   28 1    
    30   24   25 2    
    31   25   26 1    
    32   26   27 2    
    33   27   28 1    
    34   29   30 1    
    35   30   35 1    
    36   30   31 1    
    37   31   32 1    
    38   32   33 1    
    39   33   34 1    
    40   34   35 1    
@<TRIPOS>SUBSTRUCTURE
     1 UNK         1 GROUP             0       ****    0 ROOT    
