@<TRIPOS>MOLECULE
ZINC91970132
21   22    1
SMALL
USER_CHARGES


@<TRIPOS>ATOM
      1 C1         -3.1148   -0.6659    0.0000 C.3       1 UNK         0.0000 
      2 C2         -1.9884   -0.0172    0.0000 C.3       1 UNK         0.0000 
      3 C3         -0.8631   -0.6682    0.0000 C.3       1 UNK         0.0000 
      4 N4          0.2633   -0.0195    0.0000 N.am      1 UNK         0.0000 
      5 C5          1.3883   -0.6708    0.0000 C.3       1 UNK         0.0000 
      6 C6          1.8342    0.5502    0.0000 C.3       1 UNK         0.0000 
      7 N7          3.1148    0.7746    0.0000 N.4       1 UNK         0.0000 
      8 C8          2.6684   -0.8978    0.0000 C.3       1 UNK         0.0000 
      9 C9          3.1117   -2.1201    0.0000 C.3       1 UNK         0.0000 
     10 C10         2.2750   -3.1149    0.0000 C.3       1 UNK         0.0000 
     11 C11         0.9949   -2.8879    0.0000 C.3       1 UNK         0.0000 
     12 C12         0.5516   -1.6659    0.0000 C.3       1 UNK         0.0000 
     13 C13         0.1582   -3.8830    0.0000 C.3       1 UNK         0.0000 
     14 C14         0.2646    1.2806    0.0000 C.2       1 UNK         0.0000 
     15 O15         1.3912    1.9293    0.0000 O.2       1 UNK         0.0000 
     16 N16        -0.8605    1.9316    0.0000 N.am      1 UNK         0.0000 
     17 C17        -1.9871    1.2829    0.0000 C.3       1 UNK         0.0000 
     18 C18        -3.1119    1.9342    0.0000 C.3       1 UNK         0.0000 
     19 O19        -3.1109    3.2343    0.0000 O.3       1 UNK         0.0000 
     20 C20        -1.9843    3.8830    0.0000 C.3       1 UNK         0.0000 
     21 C21        -0.8592    3.2317    0.0000 C.3       1 UNK         0.0000 
@<TRIPOS>BOND
     1    1    2 1    
     2    2    3 1    
     3    3    4 1    
     4    4    5 1    
     5    4   14 am   BACKBONE|DICT|INTERRES
     6    5   12 1    
     7    5    6 1    
     8    5    8 1    
     9    6    7 1    
    10    8    9 1    
    11    9   10 1    
    12   10   11 1    
    13   11   12 1    
    14   11   13 1    
    15   14   15 2    
    16   14   16 am   BACKBONE|DICT|INTERRES
    17   16   21 1    
    18   16   17 1    
    19   17   18 1    
    20   18   19 1    
    21   19   20 1    
    22   20   21 1    
@<TRIPOS>SUBSTRUCTURE
     1 UNK         1 GROUP             0       ****    0 ROOT    
