@<TRIPOS>MOLECULE
ZINC94599123
21   22    1
SMALL
USER_CHARGES


@<TRIPOS>ATOM
      1 C1          2.7110   -1.1960    0.0000 C.3       1 UNK         0.0000 
      2 N2          1.5837   -1.8439    0.0000 N.3       1 UNK         0.0000 
      3 C3          0.4592   -1.1916    0.0000 C.3       1 UNK         0.0000 
      4 C4          0.4620    0.1084    0.0000 C.ar      1 UNK         0.0000 
      5 C5         -0.6627    0.7605    0.0000 C.ar      1 UNK         0.0000 
      6 C6         -0.6599    2.0605    0.0000 C.ar      1 UNK         0.0000 
      7 C7          0.4672    2.7084    0.0000 C.ar      1 UNK         0.0000 
      8 C8          1.5917    2.0561    0.0000 C.ar      1 UNK         0.0000 
      9 C9          1.5891    0.7561    0.0000 C.ar      1 UNK         0.0000 
     10 F10         2.7136    0.1040    0.0000 F         1 UNK         0.0000 
     11 C11         2.7188    2.7037    0.0000 C.3       1 UNK         0.0000 
     12 F12         3.3665    1.5766    0.0000 F         1 UNK         0.0000 
     13 F13         4.0188    2.7011    0.0000 F         1 UNK         0.0000 
     14 F14         2.7214    4.0038    0.0000 F         1 UNK         0.0000 
     15 C15        -0.6677   -1.8392    0.0000 C.2       1 UNK         0.0000 
     16 C16        -1.8543   -1.3083    0.0000 C         1 UNK         0.0000 
     17 C17        -2.7264   -2.2724    0.0000 C.2       1 UNK         0.0000 
     18 O18        -2.0784   -3.3998    0.0000 O.3       1 UNK         0.0000 
     19 C19        -0.8065   -3.1320    0.0000 C.2       1 UNK         0.0000 
     20 C20         0.1578   -4.0038    0.0000 C.3       1 UNK         0.0000 
     21 C21        -4.0188   -2.1341    0.0000 C.3       1 UNK         0.0000 
@<TRIPOS>BOND
     1    1    2 1    
     2    2    3 1    
     3    3    4 1    
     4    3   15 1    
     5    4    9 ar   
     6    4    5 ar   
     7    5    6 ar   
     8    6    7 ar   
     9    7    8 ar   
    10    8    9 ar   
    11    8   11 1    
    12    9   10 1    
    13   11   12 1    
    14   11   13 1    
    15   11   14 1    
    16   15   19 2    
    17   15   16 1    
    18   16   17 2    
    19   17   18 1    
    20   17   21 1    
    21   18   19 1    
    22   19   20 1    
@<TRIPOS>SUBSTRUCTURE
     1 UNK         1 GROUP             0       ****    0 ROOT    
