@<TRIPOS>MOLECULE
ZINC09477732
30   33    1
SMALL
USER_CHARGES


@<TRIPOS>ATOM
      1 C1         -5.9029   -5.9351    0.0000 C.3       1 UNK         0.0000 
      2 C2         -4.7780   -5.2868    0.0000 C.3       1 UNK         0.0000 
      3 N3         -4.7770   -3.9887    0.0000 N.pl3     1 UNK         0.0000 
      4 S4         -3.6534   -3.3409    0.0000 S.o2      1 UNK         0.0000 
      5 O5         -3.0038   -4.4653    0.0000 O.2       1 UNK         0.0000 
      6 O6         -4.3024   -2.2158    0.0000 O.2       1 UNK         0.0000 
      7 C7         -2.5191   -2.6851    0.0000 C.ar      1 UNK         0.0000 
      8 C8         -2.5300   -1.3937    0.0000 C.ar      1 UNK         0.0000 
      9 C9         -1.3963   -0.7480    0.0000 C.ar      1 UNK         0.0000 
     10 C10        -0.2644   -1.3867    0.0000 C.ar      1 UNK         0.0000 
     11 C11        -0.2717   -2.6783    0.0000 C.ar      1 UNK         0.0000 
     12 C12        -1.3963   -3.3399    0.0000 C.ar      1 UNK         0.0000 
     13 C13         0.8431   -0.7480    0.0000 C.2       1 UNK         0.0000 
     14 C14         2.0337   -1.2703    0.0000 C         1 UNK         0.0000 
     15 S15         2.9118   -0.3062    0.0000 S.3       1 UNK         0.0000 
     16 C16         2.2539    0.8200    0.0000 C.2       1 UNK         0.0000 
     17 N17         0.9805    0.5569    0.0000 N.2       1 UNK         0.0000 
     18 C18         2.7874    2.0059    0.0000 C.3       1 UNK         0.0000 
     19 C19         4.0655    2.1298    0.0000 C.ar      1 UNK         0.0000 
     20 N20         4.9577    1.1976    0.0000 N.2       1 UNK         0.0000 
     21 N21         6.1608    1.6958    0.0000 N.2       1 UNK         0.0000 
     22 C22         5.9891    2.9822    0.0000 C.ar      1 UNK         0.0000 
     23 N23         4.7440    3.2812    0.0000 N.pl3     1 UNK         0.0000 
     24 C24         4.1287    4.4190    0.0000 C.3       1 UNK         0.0000 
     25 C25         4.7120    5.5857    0.0000 C.3       1 UNK         0.0000 
     26 C26         5.9616    5.9351    0.0000 C.3       1 UNK         0.0000 
     27 C27         6.9631    5.1110    0.0000 C.3       1 UNK         0.0000 
     28 C28         7.0262    3.8185    0.0000 C.3       1 UNK         0.0000 
     29 C29        -5.9011   -3.3380    0.0000 C.3       1 UNK         0.0000 
     30 C30        -7.0262   -3.9858    0.0000 C.3       1 UNK         0.0000 
@<TRIPOS>BOND
     1    1    2 1    
     2    2    3 1    
     3    3    4 1    
     4    3   29 1    
     5    4    5 2    
     6    4    6 2    
     7    4    7 1    
     8    7   12 ar   
     9    7    8 ar   
    10    8    9 ar   
    11    9   10 ar   
    12   10   11 ar   
    13   10   13 1    
    14   11   12 ar   
    15   13   17 1    
    16   13   14 2    
    17   14   15 1    
    18   15   16 1    
    19   16   17 2    
    20   16   18 1    
    21   18   19 1    
    22   19   23 ar   
    23   19   20 ar   
    24   20   21 ar   
    25   21   22 ar   
    26   22   28 1    
    27   22   23 ar   
    28   23   24 1    
    29   24   25 1    
    30   25   26 1    
    31   26   27 1    
    32   27   28 1    
    33   29   30 1    
@<TRIPOS>SUBSTRUCTURE
     1 UNK         1 GROUP             0       ****    0 ROOT    
