@<TRIPOS>MOLECULE
ZINC66563104
18   19    1
SMALL
USER_CHARGES


@<TRIPOS>ATOM
      1 C1         -3.3892    4.2189    0.0000 C.3       1 UNK         0.0000 
      2 O2         -2.2610    3.5730    0.0000 O.3       1 UNK         0.0000 
      3 C3         -2.2563    2.2730    0.0000 C.ar      1 UNK         0.0000 
      4 C4         -3.3798    1.6188    0.0000 C.ar      1 UNK         0.0000 
      5 C5         -3.3752    0.3190    0.0000 C.ar      1 UNK         0.0000 
      6 C6         -2.2470   -0.3271    0.0000 C.ar      1 UNK         0.0000 
      7 C7         -1.1235    0.3271    0.0000 C.ar      1 UNK         0.0000 
      8 C8         -1.1282    1.6271    0.0000 C.ar      1 UNK         0.0000 
      9 C9          0.0047   -0.3190    0.0000 C.3       1 UNK         0.0000 
     10 N10         0.0094   -1.6191    0.0000 N.4       1 UNK         0.0000 
     11 C11        -1.1141   -2.2730    0.0000 C.3       1 UNK         0.0000 
     12 C12        -1.1095   -3.5730    0.0000 C.3       1 UNK         0.0000 
     13 C13         0.0187   -4.2189    0.0000 C.3       1 UNK         0.0000 
     14 C14         1.1422   -3.5650    0.0000 C.3       1 UNK         0.0000 
     15 C15         1.1375   -2.2649    0.0000 C.3       1 UNK         0.0000 
     16 C16         2.2610   -1.6110    0.0000 C.2       1 UNK         0.0000 
     17 O17         2.2563   -0.3110    0.0000 O.2       1 UNK         0.0000 
     18 N18         3.3892   -2.2569    0.0000 N.am      1 UNK         0.0000 
@<TRIPOS>BOND
     1    1    2 1    
     2    2    3 1    
     3    3    8 ar   
     4    3    4 ar   
     5    4    5 ar   
     6    5    6 ar   
     7    6    7 ar   
     8    7    8 ar   
     9    7    9 1    
    10    9   10 1    
    11   10   15 1    
    12   10   11 1    
    13   11   12 1    
    14   12   13 1    
    15   13   14 1    
    16   14   15 1    
    17   15   16 1    
    18   16   17 2    
    19   16   18 am   BACKBONE|DICT|INTERRES
@<TRIPOS>SUBSTRUCTURE
     1 UNK         1 GROUP             0       ****    0 ROOT    
