@<TRIPOS>MOLECULE
ZINC94010943
21   23    1
SMALL
USER_CHARGES


@<TRIPOS>ATOM
      1 C1          1.0629    0.6512    0.0000 C.3       1 UNK         0.0000 
      2 N2          1.7137   -0.4741    0.0000 N.4       1 UNK         0.0000 
      3 C3          1.0647   -1.6005    0.0000 C.3       1 UNK         0.0000 
      4 C4         -0.2353   -1.6015    0.0000 C.2       1 UNK         0.0000 
      5 C5         -0.9987   -2.6537    0.0000 C         1 UNK         0.0000 
      6 C6         -2.2353   -2.2531    0.0000 C.ar      1 UNK         0.0000 
      7 C7         -2.2363   -0.9530    0.0000 C.ar      1 UNK         0.0000 
      8 O8         -1.0002   -0.5506    0.0000 O.3       1 UNK         0.0000 
      9 C9         -3.3626   -0.3041    0.0000 C.ar      1 UNK         0.0000 
     10 C10        -4.4880   -0.9549    0.0000 C.ar      1 UNK         0.0000 
     11 C11        -4.4869   -2.2549    0.0000 C.ar      1 UNK         0.0000 
     12 C12        -3.3606   -2.9041    0.0000 C.ar      1 UNK         0.0000 
     13 Br13       -5.6122   -2.9059    0.0000 Br        1 UNK         0.0000 
     14 C14         1.7155   -2.7258    0.0000 C.3       1 UNK         0.0000 
     15 C15         3.0137   -0.4731    0.0000 C.3       1 UNK         0.0000 
     16 C16         3.6630    0.6533    0.0000 C.3       1 UNK         0.0000 
     17 C17         3.0119    1.7786    0.0000 C.3       1 UNK         0.0000 
     18 C18         3.6611    2.9049    0.0000 C.3       1 UNK         0.0000 
     19 N19         4.9612    2.9059    0.0000 N.4       1 UNK         0.0000 
     20 C20         5.6122    1.7806    0.0000 C.3       1 UNK         0.0000 
     21 C21         4.9630    0.6543    0.0000 C.3       1 UNK         0.0000 
@<TRIPOS>BOND
     1    1    2 1    
     2    2    3 1    
     3    2   15 1    
     4    3    4 1    
     5    3   14 1    
     6    4    8 1    
     7    4    5 2    
     8    5    6 1    
     9    6   12 ar   
    10    6    7 ar   
    11    7    8 1    
    12    7    9 ar   
    13    9   10 ar   
    14   10   11 ar   
    15   11   12 ar   
    16   11   13 1    
    17   15   16 1    
    18   16   21 1    
    19   16   17 1    
    20   17   18 1    
    21   18   19 1    
    22   19   20 1    
    23   20   21 1    
@<TRIPOS>SUBSTRUCTURE
     1 UNK         1 GROUP             0       ****    0 ROOT    
