@<TRIPOS>MOLECULE
ZINC90616698
26   27    1
SMALL
USER_CHARGES


@<TRIPOS>ATOM
      1 C1          7.3205   -3.8954    0.0000 C.3       1 UNK         0.0000 
      2 N2          7.3194   -2.5954    0.0000 N.3       1 UNK         0.0000 
      3 C3          6.1931   -1.9465    0.0000 C.3       1 UNK         0.0000 
      4 C4          6.1921   -0.6465    0.0000 C.3       1 UNK         0.0000 
      5 N5          5.0658    0.0027    0.0000 N.4       1 UNK         0.0000 
      6 C6          5.0648    1.3027    0.0000 C.3       1 UNK         0.0000 
      7 C7          3.9384    1.9519    0.0000 C.3       1 UNK         0.0000 
      8 C8          2.8132    1.3009    0.0000 C.3       1 UNK         0.0000 
      9 C9          2.8142    0.0009    0.0000 C.3       1 UNK         0.0000 
     10 C10         3.9405   -0.6483    0.0000 C.3       1 UNK         0.0000 
     11 C11         1.6869    1.9501    0.0000 C.3       1 UNK         0.0000 
     12 N12         0.5616    1.2991    0.0000 N.am      1 UNK         0.0000 
     13 C13        -0.5647    1.9483    0.0000 C.2       1 UNK         0.0000 
     14 O14        -0.5658    3.2483    0.0000 O.2       1 UNK         0.0000 
     15 C15        -1.6900    1.2973    0.0000 C.3       1 UNK         0.0000 
     16 C16        -2.8163    1.9465    0.0000 C.3       1 UNK         0.0000 
     17 C17        -3.9416    1.2954    0.0000 C.3       1 UNK         0.0000 
     18 C18        -5.0679    1.9446    0.0000 C.ar      1 UNK         0.0000 
     19 C19        -6.1931    1.2936    0.0000 C.ar      1 UNK         0.0000 
     20 C20        -7.3194    1.9428    0.0000 C.ar      1 UNK         0.0000 
     21 F21        -8.4447    1.2918    0.0000 F         1 UNK         0.0000 
     22 C22        -7.3205    3.2428    0.0000 C.ar      1 UNK         0.0000 
     23 C23        -6.1952    3.8939    0.0000 C.ar      1 UNK         0.0000 
     24 C24        -5.0689    3.2446    0.0000 C.ar      1 UNK         0.0000 
     25 F25        -3.9436    3.8954    0.0000 F         1 UNK         0.0000 
     26 C26         8.4447   -1.9447    0.0000 C.3       1 UNK         0.0000 
@<TRIPOS>BOND
     1    1    2 1    
     2    2    3 1    
     3    2   26 1    
     4    3    4 1    
     5    4    5 1    
     6    5   10 1    
     7    5    6 1    
     8    6    7 1    
     9    7    8 1    
    10    8    9 1    
    11    8   11 1    
    12    9   10 1    
    13   11   12 1    
    14   12   13 am   BACKBONE|DICT|INTERRES
    15   13   14 2    
    16   13   15 1    
    17   15   16 1    
    18   16   17 1    
    19   17   18 1    
    20   18   24 ar   
    21   18   19 ar   
    22   19   20 ar   
    23   20   21 1    
    24   20   22 ar   
    25   22   23 ar   
    26   23   24 ar   
    27   24   25 1    
@<TRIPOS>SUBSTRUCTURE
     1 UNK         1 GROUP             0       ****    0 ROOT    
