@<TRIPOS>MOLECULE
ZINC94326282
17   18    1
SMALL
USER_CHARGES


@<TRIPOS>ATOM
      1 N1          1.6920    2.1271    0.0000 N.1       1 UNK         0.0000 
      2 C2          0.5667    1.4763    0.0000 C.1       1 UNK         0.0000 
      3 C3         -0.5586    0.8252    0.0000 C.ar      1 UNK         0.0000 
      4 C4         -1.6849    1.4745    0.0000 C.ar      1 UNK         0.0000 
      5 C5         -2.8102    0.8237    0.0000 C.ar      1 UNK         0.0000 
      6 C6         -2.8092   -0.4763    0.0000 C.ar      1 UNK         0.0000 
      7 C7         -1.6829   -1.1255    0.0000 C.ar      1 UNK         0.0000 
      8 C8         -0.5576   -0.4748    0.0000 C.ar      1 UNK         0.0000 
      9 N9          0.5688   -1.1237    0.0000 N.2       1 UNK         0.0000 
     10 C10         1.6940   -0.4729    0.0000 C.3       1 UNK         0.0000 
     11 C11         1.8290    0.8203    0.0000 C.3       1 UNK         0.0000 
     12 C12         3.1001    1.0915    0.0000 C.3       1 UNK         0.0000 
     13 C13         3.7512   -0.0338    0.0000 C.3       1 UNK         0.0000 
     14 C14         2.8822   -1.0007    0.0000 C.3       1 UNK         0.0000 
     15 C15         2.2328   -2.1271    0.0000 C.3       1 UNK         0.0000 
     16 C16         3.9345   -1.7639    0.0000 C.3       1 UNK         0.0000 
     17 C17        -3.9345   -1.1274    0.0000 C.3       1 UNK         0.0000 
@<TRIPOS>BOND
     1    1    2 3    
     2    2    3 1    
     3    3    8 ar   
     4    3    4 ar   
     5    4    5 ar   
     6    5    6 ar   
     7    6    7 ar   
     8    6   17 1    
     9    7    8 ar   
    10    8    9 1    
    11    9   10 1    
    12   10   14 1    
    13   10   11 1    
    14   11   12 1    
    15   12   13 1    
    16   13   14 1    
    17   14   15 1    
    18   14   16 1    
@<TRIPOS>SUBSTRUCTURE
     1 UNK         1 GROUP             0       ****    0 ROOT    
