@<TRIPOS>MOLECULE
ZINC87362974
15   15    1
SMALL
USER_CHARGES


@<TRIPOS>ATOM
      1 O1         -5.0660   -0.3290    0.0000 O.3       1 UNK         0.0000 
      2 C2         -3.9407    0.3218    0.0000 C.3       1 UNK         0.0000 
      3 C3         -2.8143   -0.3272    0.0000 C.3       1 UNK         0.0000 
      4 C4         -1.6890    0.3236    0.0000 C.3       1 UNK         0.0000 
      5 C5         -0.5627   -0.3254    0.0000 C.3       1 UNK         0.0000 
      6 N6          0.5627    0.3254    0.0000 N.4       1 UNK         0.0000 
      7 C7          1.6890   -0.3236    0.0000 C.3       1 UNK         0.0000 
      8 C8          1.6901   -1.6236    0.0000 C.3       1 UNK         0.0000 
      9 C9          2.8164   -2.2729    0.0000 C.3       1 UNK         0.0000 
     10 O10         3.9417   -1.6218    0.0000 O.3       1 UNK         0.0000 
     11 C11         3.9407   -0.3218    0.0000 C.3       1 UNK         0.0000 
     12 C12         2.8143    0.3272    0.0000 C.3       1 UNK         0.0000 
     13 C13         5.0660    0.3290    0.0000 C.3       1 UNK         0.0000 
     14 C14        -1.6901    1.6236    0.0000 C.3       1 UNK         0.0000 
     15 C15        -2.8164    2.2729    0.0000 C.3       1 UNK         0.0000 
@<TRIPOS>BOND
     1    1    2 1    
     2    2    3 1    
     3    3    4 1    
     4    4    5 1    
     5    4   14 1    
     6    5    6 1    
     7    6    7 1    
     8    7   12 1    
     9    7    8 1    
    10    8    9 1    
    11    9   10 1    
    12   10   11 1    
    13   11   12 1    
    14   11   13 1    
    15   14   15 1    
@<TRIPOS>SUBSTRUCTURE
     1 UNK         1 GROUP             0       ****    0 ROOT    
