@<TRIPOS>MOLECULE
ZINC14202289
29   31    1
SMALL
USER_CHARGES


@<TRIPOS>ATOM
      1 C1          7.3216   -4.2219    0.0000 C.3       1 UNK         0.0000 
      2 C2          7.3206   -2.9219    0.0000 C.2       1 UNK         0.0000 
      3 O3          8.4459   -2.2711    0.0000 O.2       1 UNK         0.0000 
      4 N4          6.1943   -2.2729    0.0000 N.am      1 UNK         0.0000 
      5 C5          6.1932   -0.9729    0.0000 C.3       1 UNK         0.0000 
      6 C6          5.0669   -0.3237    0.0000 C.ar      1 UNK         0.0000 
      7 C7          3.9416   -0.9747    0.0000 C.ar      1 UNK         0.0000 
      8 C8          2.8153   -0.3255    0.0000 C.ar      1 UNK         0.0000 
      9 C9          2.8143    0.9745    0.0000 C.ar      1 UNK         0.0000 
     10 C10         3.9395    1.6253    0.0000 C.ar      1 UNK         0.0000 
     11 C11         5.0659    0.9763    0.0000 C.ar      1 UNK         0.0000 
     12 S12         1.6879    1.6234    0.0000 S.o2      1 UNK         0.0000 
     13 O13         1.0390    0.4971    0.0000 O.2       1 UNK         0.0000 
     14 O14         2.3372    2.7498    0.0000 O.2       1 UNK         0.0000 
     15 N15         0.5616    2.2727    0.0000 N.pl3     1 UNK         0.0000 
     16 C16        -0.5637    1.6216    0.0000 C.3       1 UNK         0.0000 
     17 C17        -1.6900    2.2709    0.0000 C.3       1 UNK         0.0000 
     18 N18        -1.6910    3.5709    0.0000 N.3       1 UNK         0.0000 
     19 C19        -0.5658    4.2219    0.0000 C.3       1 UNK         0.0000 
     20 C20         0.5606    3.5727    0.0000 C.3       1 UNK         0.0000 
     21 C21        -2.8174    4.2201    0.0000 C.3       1 UNK         0.0000 
     22 C22        -3.9427    3.5690    0.0000 C.3       1 UNK         0.0000 
     23 O23        -5.0690    4.2183    0.0000 O.3       1 UNK         0.0000 
     24 C24        -6.1943    3.5672    0.0000 C.ar      1 UNK         0.0000 
     25 C25        -6.1932    2.2672    0.0000 C.ar      1 UNK         0.0000 
     26 C26        -7.3185    1.6164    0.0000 C.ar      1 UNK         0.0000 
     27 C27        -8.4448    2.2654    0.0000 C.ar      1 UNK         0.0000 
     28 C28        -8.4459    3.5654    0.0000 C.ar      1 UNK         0.0000 
     29 C29        -7.3206    4.2164    0.0000 C.ar      1 UNK         0.0000 
@<TRIPOS>BOND
     1    1    2 1    
     2    2    3 2    
     3    2    4 am   BACKBONE|DICT|INTERRES
     4    4    5 1    
     5    5    6 1    
     6    6   11 ar   
     7    6    7 ar   
     8    7    8 ar   
     9    8    9 ar   
    10    9   10 ar   
    11    9   12 1    
    12   10   11 ar   
    13   12   13 2    
    14   12   14 2    
    15   12   15 1    
    16   15   20 1    
    17   15   16 1    
    18   16   17 1    
    19   17   18 1    
    20   18   19 1    
    21   18   21 1    
    22   19   20 1    
    23   21   22 1    
    24   22   23 1    
    25   23   24 1    
    26   24   29 ar   
    27   24   25 ar   
    28   25   26 ar   
    29   26   27 ar   
    30   27   28 ar   
    31   28   29 ar   
@<TRIPOS>SUBSTRUCTURE
     1 UNK         1 GROUP             0       ****    0 ROOT    
