@<TRIPOS>MOLECULE
ZINC72411135
16   17    1
SMALL
USER_CHARGES


@<TRIPOS>ATOM
      1 Cl1         2.8042    1.6430    0.0000 Cl        1 UNK         0.0000 
      2 C2          2.8125    0.3429    0.0000 C.ar      1 UNK         0.0000 
      3 C3          3.9425   -0.2998    0.0000 C.ar      1 UNK         0.0000 
      4 C4          3.9508   -1.5998    0.0000 C.ar      1 UNK         0.0000 
      5 C5          2.8291   -2.2568    0.0000 C.ar      1 UNK         0.0000 
      6 C6          1.6991   -1.6141    0.0000 C.ar      1 UNK         0.0000 
      7 C7          1.6908   -0.3141    0.0000 C.ar      1 UNK         0.0000 
      8 C8          0.5608    0.3286    0.0000 C.3       1 UNK         0.0000 
      9 N9         -0.5608   -0.3286    0.0000 N.3       1 UNK         0.0000 
     10 C10        -1.6908    0.3141    0.0000 C.3       1 UNK         0.0000 
     11 C11        -1.6991    1.6141    0.0000 C.3       1 UNK         0.0000 
     12 C12        -2.8291    2.2568    0.0000 C.3       1 UNK         0.0000 
     13 C13        -3.9508    1.5998    0.0000 C.3       1 UNK         0.0000 
     14 C14        -3.9425    0.2998    0.0000 C.3       1 UNK         0.0000 
     15 C15        -2.8125   -0.3429    0.0000 C.3       1 UNK         0.0000 
     16 N16        -2.8042   -1.6430    0.0000 N.4       1 UNK         0.0000 
@<TRIPOS>BOND
     1    1    2 1    
     2    2    7 ar   
     3    2    3 ar   
     4    3    4 ar   
     5    4    5 ar   
     6    5    6 ar   
     7    6    7 ar   
     8    7    8 1    
     9    8    9 1    
    10    9   10 1    
    11   10   15 1    
    12   10   11 1    
    13   11   12 1    
    14   12   13 1    
    15   13   14 1    
    16   14   15 1    
    17   15   16 1    
@<TRIPOS>SUBSTRUCTURE
     1 UNK         1 GROUP             0       ****    0 ROOT    
