@<TRIPOS>MOLECULE
ZINC92741106
25   27    1
SMALL
USER_CHARGES


@<TRIPOS>ATOM
      1 F1          7.8678   -1.8093    0.0000 F         1 UNK         0.0000 
      2 C2          6.7291   -1.1575    0.0000 C.ar      1 UNK         0.0000 
      3 C3          5.6180   -1.8348    0.0000 C.ar      1 UNK         0.0000 
      4 C4          4.5079   -1.1697    0.0000 C.ar      1 UNK         0.0000 
      5 C5          4.4785    0.1324    0.0000 C.ar      1 UNK         0.0000 
      6 N6          5.6154    0.7655    0.0000 N.ar      1 UNK         0.0000 
      7 C7          6.7507    0.1446    0.0000 C.ar      1 UNK         0.0000 
      8 C8          3.3630    0.7743    0.0000 C.3       1 UNK         0.0000 
      9 N9          2.2397    0.1248    0.0000 N.4       1 UNK         0.0000 
     10 C10         1.1122    0.7725    0.0000 C.3       1 UNK         0.0000 
     11 C11        -0.0120    0.1027    0.0000 C.ar      1 UNK         0.0000 
     12 C12        -0.0036   -1.1814    0.0000 C.ar      1 UNK         0.0000 
     13 C13        -1.1275   -1.8519    0.0000 C.ar      1 UNK         0.0000 
     14 C14        -2.2560   -1.1889    0.0000 C.ar      1 UNK         0.0000 
     15 C15        -2.2568    0.0950    0.0000 C.ar      1 UNK         0.0000 
     16 C16        -1.1368    0.7538    0.0000 C.ar      1 UNK         0.0000 
     17 C17        -3.3892    0.7517    0.0000 C.3       1 UNK         0.0000 
     18 N18        -4.5204    0.0744    0.0000 N.pl3     1 UNK         0.0000 
     19 N19        -5.7094    0.6138    0.0000 N.2       1 UNK         0.0000 
     20 C20        -6.5626   -0.3566    0.0000 C.ar      1 UNK         0.0000 
     21 C21        -5.9222   -1.4791    0.0000 C.ar      1 UNK         0.0000 
     22 C22        -4.6490   -1.1905    0.0000 C.ar      1 UNK         0.0000 
     23 C23        -3.6820   -2.0733    0.0000 C.3       1 UNK         0.0000 
     24 C24        -7.8678   -0.2238    0.0000 C.3       1 UNK         0.0000 
     25 C25         3.3614    2.0733    0.0000 C.3       1 UNK         0.0000 
@<TRIPOS>BOND
     1    1    2 1    
     2    2    7 ar   
     3    2    3 ar   
     4    3    4 ar   
     5    4    5 ar   
     6    5    6 ar   
     7    5    8 1    
     8    6    7 ar   
     9    8    9 1    
    10    8   25 1    
    11    9   10 1    
    12   10   11 1    
    13   11   16 ar   
    14   11   12 ar   
    15   12   13 ar   
    16   13   14 ar   
    17   14   15 ar   
    18   15   16 ar   
    19   15   17 1    
    20   17   18 1    
    21   18   22 ar   
    22   18   19 ar   
    23   19   20 ar   
    24   20   21 ar   
    25   20   24 1    
    26   21   22 ar   
    27   22   23 1    
@<TRIPOS>SUBSTRUCTURE
     1 UNK         1 GROUP             0       ****    0 ROOT    
