@<TRIPOS>MOLECULE
ZINC60484420
24   25    1
SMALL
USER_CHARGES


@<TRIPOS>ATOM
      1 C1          7.3169    3.2509    0.0000 C.3       1 UNK         0.0000 
      2 C2          6.1916    2.6001    0.0000 C.3       1 UNK         0.0000 
      3 O3          6.1927    1.3001    0.0000 O.3       1 UNK         0.0000 
      4 C4          5.0674    0.6493    0.0000 C.3       1 UNK         0.0000 
      5 C5          5.0684   -0.6506    0.0000 C.ar      1 UNK         0.0000 
      6 C6          6.1947   -1.2999    0.0000 C.ar      1 UNK         0.0000 
      7 C7          6.1958   -2.5999    0.0000 C.ar      1 UNK         0.0000 
      8 C8          5.0705   -3.2509    0.0000 C.ar      1 UNK         0.0000 
      9 C9          3.9442   -2.6017    0.0000 C.ar      1 UNK         0.0000 
     10 C10         3.9431   -1.3017    0.0000 C.ar      1 UNK         0.0000 
     11 C11         2.8168   -0.6525    0.0000 C.3       1 UNK         0.0000 
     12 N12         1.6916   -1.3035    0.0000 N.am      1 UNK         0.0000 
     13 C13         0.5652   -0.6543    0.0000 C.2       1 UNK         0.0000 
     14 O14         0.5642    0.6457    0.0000 O.2       1 UNK         0.0000 
     15 C15        -0.5600   -1.3053    0.0000 C.3       1 UNK         0.0000 
     16 N16        -1.6864   -0.6561    0.0000 N.3       1 UNK         0.0000 
     17 C17        -2.8116   -1.3071    0.0000 C.3       1 UNK         0.0000 
     18 C18        -3.9379   -0.6579    0.0000 C.3       1 UNK         0.0000 
     19 C19        -3.9390    0.6421    0.0000 C.3       1 UNK         0.0000 
     20 C20        -2.8137    1.2931    0.0000 C.3       1 UNK         0.0000 
     21 C21        -1.6874    0.6439    0.0000 C.3       1 UNK         0.0000 
     22 O22        -5.0653    1.2910    0.0000 O.3       1 UNK         0.0000 
     23 C23        -6.1906    0.6402    0.0000 C.3       1 UNK         0.0000 
     24 C24        -7.3169    1.2895    0.0000 C.3       1 UNK         0.0000 
@<TRIPOS>BOND
     1    1    2 1    
     2    2    3 1    
     3    3    4 1    
     4    4    5 1    
     5    5   10 ar   
     6    5    6 ar   
     7    6    7 ar   
     8    7    8 ar   
     9    8    9 ar   
    10    9   10 ar   
    11   10   11 1    
    12   11   12 1    
    13   12   13 am   BACKBONE|DICT|INTERRES
    14   13   14 2    
    15   13   15 1    
    16   15   16 1    
    17   16   21 1    
    18   16   17 1    
    19   17   18 1    
    20   18   19 1    
    21   19   20 1    
    22   19   22 1    
    23   20   21 1    
    24   22   23 1    
    25   23   24 1    
@<TRIPOS>SUBSTRUCTURE
     1 UNK         1 GROUP             0       ****    0 ROOT    
