@<TRIPOS>MOLECULE
ZINC23901773
21   22    1
SMALL
USER_CHARGES


@<TRIPOS>ATOM
      1 C1         -6.7544    1.3081    0.0000 C.1       1 UNK         0.0000 
      2 C2         -5.6291    0.6573    0.0000 C.1       1 UNK         0.0000 
      3 C3         -4.5038    0.0062    0.0000 C.ar      1 UNK         0.0000 
      4 C4         -4.5049   -1.2935    0.0000 C.ar      1 UNK         0.0000 
      5 C5         -3.3796   -1.9446    0.0000 C.ar      1 UNK         0.0000 
      6 C6         -2.2532   -1.2954    0.0000 C.ar      1 UNK         0.0000 
      7 C7         -2.2522    0.0047    0.0000 C.ar      1 UNK         0.0000 
      8 C8         -3.3775    0.6555    0.0000 C.ar      1 UNK         0.0000 
      9 N9         -1.1258    0.6537    0.0000 N.2       1 UNK         0.0000 
     10 C10        -0.0005    0.0029    0.0000 C.3       1 UNK         0.0000 
     11 C11         1.1258    0.6518    0.0000 C.2       1 UNK         0.0000 
     12 O12         1.1269    1.9519    0.0000 O.2       1 UNK         0.0000 
     13 N13         2.2511    0.0010    0.0000 N.am      1 UNK         0.0000 
     14 C14         3.3775    0.6500    0.0000 C.3       1 UNK         0.0000 
     15 C15         4.5028   -0.0008    0.0000 C.ar      1 UNK         0.0000 
     16 C16         4.5018   -1.3008    0.0000 C.ar      1 UNK         0.0000 
     17 C17         5.6271   -1.9519    0.0000 C.ar      1 UNK         0.0000 
     18 C18         6.7534   -1.3026    0.0000 C.ar      1 UNK         0.0000 
     19 C19         6.7544   -0.0026    0.0000 C.ar      1 UNK         0.0000 
     20 C20         5.6291    0.6485    0.0000 C.ar      1 UNK         0.0000 
     21 C21         3.3785    1.9500    0.0000 C.3       1 UNK         0.0000 
@<TRIPOS>BOND
     1    1    2 3    
     2    2    3 1    
     3    3    8 ar   
     4    3    4 ar   
     5    4    5 ar   
     6    5    6 ar   
     7    6    7 ar   
     8    7    8 ar   
     9    7    9 1    
    10    9   10 1    
    11   10   11 1    
    12   11   12 2    
    13   11   13 am   BACKBONE|DICT|INTERRES
    14   13   14 1    
    15   14   15 1    
    16   14   21 1    
    17   15   20 ar   
    18   15   16 ar   
    19   16   17 ar   
    20   17   18 ar   
    21   18   19 ar   
    22   19   20 ar   
@<TRIPOS>SUBSTRUCTURE
     1 UNK         1 GROUP             0       ****    0 ROOT    
