@<TRIPOS>MOLECULE
ZINC56053921
25   27    1
SMALL
USER_CHARGES


@<TRIPOS>ATOM
      1 C1          0.4820    7.8471    0.0000 C.3       1 UNK         0.0000 
      2 C2          0.4859    6.5581    0.0000 C.ar      1 UNK         0.0000 
      3 C3         -0.6123    5.8746    0.0000 C.ar      1 UNK         0.0000 
      4 C4         -0.6463    4.5828    0.0000 C.ar      1 UNK         0.0000 
      5 C5          0.5127    3.9191    0.0000 C.ar      1 UNK         0.0000 
      6 C6          1.6111    4.6023    0.0000 C.ar      1 UNK         0.0000 
      7 C7          1.6452    5.8944    0.0000 C.ar      1 UNK         0.0000 
      8 C8          0.5132    2.6301    0.0000 C         1 UNK         0.0000 
      9 C9          1.6405    1.9843    0.0000 C         1 UNK         0.0000 
     10 S10         1.6420    0.6844    0.0000 S.o2      1 UNK         0.0000 
     11 O11         0.3419    0.6831    0.0000 O.2       1 UNK         0.0000 
     12 O12         2.9417    0.6860    0.0000 O.2       1 UNK         0.0000 
     13 N13         1.6433   -0.6160    0.0000 N.2       1 UNK         0.0000 
     14 C14         0.5179   -1.2681    0.0000 C.3       1 UNK         0.0000 
     15 C15         0.5181   -2.5555    0.0000 C.2       1 UNK         0.0000 
     16 S16         1.5718   -3.3276    0.0000 S.3       1 UNK         0.0000 
     17 C17         1.1743   -4.5573    0.0000 C         1 UNK         0.0000 
     18 C18        -0.1321   -4.5664    0.0000 C.2       1 UNK         0.0000 
     19 N19        -0.5301   -3.3274    0.0000 N.2       1 UNK         0.0000 
     20 C20        -0.8894   -5.6134    0.0000 C.ar      1 UNK         0.0000 
     21 C21        -2.1846   -5.4847    0.0000 C.ar      1 UNK         0.0000 
     22 C22        -2.9417   -6.5246    0.0000 C.ar      1 UNK         0.0000 
     23 C23        -2.4189   -7.7231    0.0000 C.ar      1 UNK         0.0000 
     24 C24        -1.1171   -7.8471    0.0000 C.ar      1 UNK         0.0000 
     25 C25        -0.3642   -6.8043    0.0000 C.ar      1 UNK         0.0000 
@<TRIPOS>BOND
     1    1    2 1    
     2    2    7 ar   
     3    2    3 ar   
     4    3    4 ar   
     5    4    5 ar   
     6    5    6 ar   
     7    5    8 1    
     8    6    7 ar   
     9    8    9 2    
    10    9   10 1    
    11   10   11 2    
    12   10   12 2    
    13   10   13 1    
    14   13   14 1    
    15   14   15 1    
    16   15   19 2    
    17   15   16 1    
    18   16   17 1    
    19   17   18 2    
    20   18   19 1    
    21   18   20 1    
    22   20   25 ar   
    23   20   21 ar   
    24   21   22 ar   
    25   22   23 ar   
    26   23   24 ar   
    27   24   25 ar   
@<TRIPOS>SUBSTRUCTURE
     1 UNK         1 GROUP             0       ****    0 ROOT    
