@<TRIPOS>MOLECULE
ZINC02438813
37   41    1
SMALL
USER_CHARGES


@<TRIPOS>ATOM
      1 C1         -8.8635    5.0122    0.0000 C.3       1 UNK         0.0000 
      2 C2         -8.1550    3.9223    0.0000 C.3       1 UNK         0.0000 
      3 C3         -8.7447    2.7637    0.0000 C.3       1 UNK         0.0000 
      4 C4         -8.0362    1.6738    0.0000 C.3       1 UNK         0.0000 
      5 C5         -6.7380    1.7424    0.0000 C.3       1 UNK         0.0000 
      6 N6         -6.1483    2.9010    0.0000 N.4       1 UNK         0.0000 
      7 C7         -6.8568    3.9909    0.0000 C.3       1 UNK         0.0000 
      8 C8         -4.8501    2.9696    0.0000 C.2       1 UNK         0.0000 
      9 O9         -4.2604    4.1282    0.0000 O.2       1 UNK         0.0000 
     10 C10        -4.1416    1.8797    0.0000 C.3       1 UNK         0.0000 
     11 C11        -4.7313    0.7211    0.0000 C.3       1 UNK         0.0000 
     12 N12        -6.0295    0.6525    0.0000 N.3       1 UNK         0.0000 
     13 N13        -3.8117   -0.1977    0.0000 N.3       1 UNK         0.0000 
     14 C14        -2.6536    0.3930    0.0000 C.3       1 UNK         0.0000 
     15 C15        -2.8577    1.6769    0.0000 C.3       1 UNK         0.0000 
     16 C16        -1.4950   -0.1967    0.0000 C.2       1 UNK         0.0000 
     17 O17        -0.4051    0.5118    0.0000 O.2       1 UNK         0.0000 
     18 N18        -1.4264   -1.4949    0.0000 N.am      1 UNK         0.0000 
     19 C19        -0.2678   -2.0846    0.0000 C.ar      1 UNK         0.0000 
     20 C20        -0.1992   -3.3828    0.0000 C.ar      1 UNK         0.0000 
     21 C21         0.9594   -3.9725    0.0000 C.ar      1 UNK         0.0000 
     22 C22         2.0493   -3.2640    0.0000 C.ar      1 UNK         0.0000 
     23 C23         1.9807   -1.9658    0.0000 C.ar      1 UNK         0.0000 
     24 C24         0.8221   -1.3761    0.0000 C.ar      1 UNK         0.0000 
     25 S25         3.2079   -3.8536    0.0000 S.o2      1 UNK         0.0000 
     26 O26         2.6182   -5.0122    0.0000 O.2       1 UNK         0.0000 
     27 O27         3.7976   -2.6951    0.0000 O.2       1 UNK         0.0000 
     28 N28         4.3665   -4.4433    0.0000 N.2       1 UNK         0.0000 
     29 C29         5.4564   -3.7348    0.0000 C.ar      1 UNK         0.0000 
     30 N30         5.3878   -2.4366    0.0000 N.ar      1 UNK         0.0000 
     31 C31         6.4780   -1.7281    0.0000 C.ar      1 UNK         0.0000 
     32 C32         6.4091   -0.4299    0.0000 C.3       1 UNK         0.0000 
     33 C33         7.6363   -2.3178    0.0000 C.ar      1 UNK         0.0000 
     34 C34         7.7052   -3.6160    0.0000 C.ar      1 UNK         0.0000 
     35 N35         6.6150   -4.3245    0.0000 N.ar      1 UNK         0.0000 
     36 C36         8.8635   -4.2057    0.0000 C.3       1 UNK         0.0000 
     37 C37        -4.0145   -1.4819    0.0000 C.3       1 UNK         0.0000 
@<TRIPOS>BOND
     1    1    2 1    
     2    2    7 1    
     3    2    3 1    
     4    3    4 1    
     5    4    5 1    
     6    5   12 1    
     7    5    6 1    
     8    6    7 1    
     9    6    8 1    
    10    8    9 2    
    11    8   10 1    
    12   10   15 1    
    13   10   11 1    
    14   11   12 1    
    15   11   13 1    
    16   13   14 1    
    17   13   37 1    
    18   14   15 1    
    19   14   16 1    
    20   16   17 2    
    21   16   18 am   BACKBONE|DICT|INTERRES
    22   18   19 1    
    23   19   24 ar   
    24   19   20 ar   
    25   20   21 ar   
    26   21   22 ar   
    27   22   23 ar   
    28   22   25 1    
    29   23   24 ar   
    30   25   26 2    
    31   25   27 2    
    32   25   28 1    
    33   28   29 1    
    34   29   35 ar   
    35   29   30 ar   
    36   30   31 ar   
    37   31   32 1    
    38   31   33 ar   
    39   33   34 ar   
    40   34   35 ar   
    41   34   36 1    
@<TRIPOS>SUBSTRUCTURE
     1 UNK         1 GROUP             0       ****    0 ROOT    
