@<TRIPOS>MOLECULE
ZINC48414283
22   24    1
SMALL
USER_CHARGES


@<TRIPOS>ATOM
      1 C1         -6.0670   -2.2710    0.0000 C.3       1 UNK         0.0000 
      2 O2         -4.9406   -1.6220    0.0000 O.3       1 UNK         0.0000 
      3 C3         -4.9396   -0.3220    0.0000 C.ar      1 UNK         0.0000 
      4 N4         -6.0649    0.3290    0.0000 N.ar      1 UNK         0.0000 
      5 C5         -6.0639    1.6291    0.0000 C.ar      1 UNK         0.0000 
      6 C6         -4.9375    2.2783    0.0000 C.ar      1 UNK         0.0000 
      7 C7         -3.8122    1.6272    0.0000 C.ar      1 UNK         0.0000 
      8 C8         -3.8133    0.3272    0.0000 C.ar      1 UNK         0.0000 
      9 N9         -2.6879   -0.3236    0.0000 N.am      1 UNK         0.0000 
     10 C10        -1.5616    0.3254    0.0000 C.2       1 UNK         0.0000 
     11 O11        -1.5606    1.6254    0.0000 O.2       1 UNK         0.0000 
     12 N12        -0.4363   -0.3254    0.0000 N.am      1 UNK         0.0000 
     13 C13         0.6901    0.3236    0.0000 C.3       1 UNK         0.0000 
     14 C14         1.8154   -0.3272    0.0000 C.ar      1 UNK         0.0000 
     15 C15         1.8143   -1.6272    0.0000 C.ar      1 UNK         0.0000 
     16 C16         2.9396   -2.2783    0.0000 C.ar      1 UNK         0.0000 
     17 C17         4.0657   -1.6291    0.0000 C.ar      1 UNK         0.0000 
     18 C18         4.0668   -0.3290    0.0000 C.ar      1 UNK         0.0000 
     19 C19         2.9417    0.3218    0.0000 C.ar      1 UNK         0.0000 
     20 O20         5.3036    0.0716    0.0000 O.3       1 UNK         0.0000 
     21 C21         6.0670   -0.9806    0.0000 C.3       1 UNK         0.0000 
     22 O22         5.3018   -2.0318    0.0000 O.3       1 UNK         0.0000 
@<TRIPOS>BOND
     1    1    2 1    
     2    2    3 1    
     3    3    8 ar   
     4    3    4 ar   
     5    4    5 ar   
     6    5    6 ar   
     7    6    7 ar   
     8    7    8 ar   
     9    8    9 1    
    10    9   10 am   BACKBONE|DICT|INTERRES
    11   10   11 2    
    12   10   12 am   BACKBONE|DICT|INTERRES
    13   12   13 1    
    14   13   14 1    
    15   14   19 ar   
    16   14   15 ar   
    17   15   16 ar   
    18   16   17 ar   
    19   17   22 1    
    20   17   18 ar   
    21   18   19 ar   
    22   18   20 1    
    23   20   21 1    
    24   21   22 1    
@<TRIPOS>SUBSTRUCTURE
     1 UNK         1 GROUP             0       ****    0 ROOT    
