@<TRIPOS>MOLECULE
ZINC89316652
21   22    1
SMALL
USER_CHARGES


@<TRIPOS>ATOM
      1 C1         -6.9103    0.4561    0.0000 C         1 UNK         0.0000 
      2 C2         -5.7840   -0.1940    0.0000 C         1 UNK         0.0000 
      3 C3         -4.6578    0.4561    0.0000 C.3       1 UNK         0.0000 
      4 C4         -3.5316   -0.1945    0.0000 C.3       1 UNK         0.0000 
      5 C5         -2.4051    0.4553    0.0000 C.3       1 UNK         0.0000 
      6 O6         -1.2786   -0.1955    0.0000 O.3       1 UNK         0.0000 
      7 C7         -0.1519    0.4540    0.0000 C.2       1 UNK         0.0000 
      8 O8         -0.1516    1.7542    0.0000 O.2       1 UNK         0.0000 
      9 C9          0.9645   -0.1888    0.0000 C.ar      1 UNK         0.0000 
     10 C10         1.1106   -1.4879    0.0000 C.ar      1 UNK         0.0000 
     11 N11         2.3742   -1.7555    0.0000 N.2       1 UNK         0.0000 
     12 N12         3.0344   -0.6264    0.0000 N.pl3     1 UNK         0.0000 
     13 C13         2.1570    0.3352    0.0000 C.ar      1 UNK         0.0000 
     14 C14         2.4288    1.6200    0.0000 C.3       1 UNK         0.0000 
     15 C15         4.3182   -0.4889    0.0000 C.ar      1 UNK         0.0000 
     16 C16         5.0900   -1.5373    0.0000 C.ar      1 UNK         0.0000 
     17 C17         6.3691   -1.4037    0.0000 C.ar      1 UNK         0.0000 
     18 C18         6.9103   -0.2127    0.0000 C.ar      1 UNK         0.0000 
     19 C19         6.1307    0.8376    0.0000 C.ar      1 UNK         0.0000 
     20 N20         4.8521    0.6987    0.0000 N.ar      1 UNK         0.0000 
     21 C21        -2.4046    1.7555    0.0000 C.3       1 UNK         0.0000 
@<TRIPOS>BOND
     1    1    2 2    
     2    2    3 1    
     3    3    4 1    
     4    4    5 1    
     5    5    6 1    
     6    5   21 1    
     7    6    7 1    
     8    7    8 2    
     9    7    9 1    
    10    9   13 ar   
    11    9   10 ar   
    12   10   11 ar   
    13   11   12 ar   
    14   12   13 ar   
    15   12   15 1    
    16   13   14 1    
    17   15   20 ar   
    18   15   16 ar   
    19   16   17 ar   
    20   17   18 ar   
    21   18   19 ar   
    22   19   20 ar   
@<TRIPOS>SUBSTRUCTURE
     1 UNK         1 GROUP             0       ****    0 ROOT    
