@<TRIPOS>MOLECULE
ZINC02378379
19   20    1
SMALL
USER_CHARGES


@<TRIPOS>ATOM
      1 O1         -3.9411   -1.9465    0.0000 O.3       1 UNK         0.0000 
      2 C2         -2.8148   -1.2973    0.0000 C.2       1 UNK         0.0000 
      3 O3         -2.8138    0.0027    0.0000 O.2       1 UNK         0.0000 
      4 C4         -1.6895   -1.9483    0.0000 C.3       1 UNK         0.0000 
      5 C5         -1.6905   -3.2484    0.0000 C.3       1 UNK         0.0000 
      6 C6         -0.5652   -3.8992    0.0000 C.3       1 UNK         0.0000 
      7 C7          0.5611   -3.2502    0.0000 C.3       1 UNK         0.0000 
      8 C8          0.5621   -1.9502    0.0000 C.3       1 UNK         0.0000 
      9 C9         -0.5632   -1.2991    0.0000 C.3       1 UNK         0.0000 
     10 C10        -0.5621    0.0009    0.0000 C.2       1 UNK         0.0000 
     11 O11        -1.6874    0.6517    0.0000 O.2       1 UNK         0.0000 
     12 C12         0.5642    0.6499    0.0000 C.ar      1 UNK         0.0000 
     13 C13         1.6895   -0.0009    0.0000 C.ar      1 UNK         0.0000 
     14 C14         2.8158    0.6481    0.0000 C.ar      1 UNK         0.0000 
     15 C15         3.9411   -0.0027    0.0000 C.3       1 UNK         0.0000 
     16 C16         2.8169    1.9481    0.0000 C.ar      1 UNK         0.0000 
     17 C17         1.6916    2.5991    0.0000 C.ar      1 UNK         0.0000 
     18 C18         0.5652    1.9499    0.0000 C.ar      1 UNK         0.0000 
     19 C19         1.6926    3.8992    0.0000 C.3       1 UNK         0.0000 
@<TRIPOS>BOND
     1    1    2 1    
     2    2    3 2    
     3    2    4 1    
     4    4    9 1    
     5    4    5 1    
     6    5    6 1    
     7    6    7 1    
     8    7    8 1    
     9    8    9 1    
    10    9   10 1    
    11   10   11 2    
    12   10   12 1    
    13   12   18 ar   
    14   12   13 ar   
    15   13   14 ar   
    16   14   15 1    
    17   14   16 ar   
    18   16   17 ar   
    19   17   18 ar   
    20   17   19 1    
@<TRIPOS>SUBSTRUCTURE
     1 UNK         1 GROUP             0       ****    0 ROOT    
