@<TRIPOS>MOLECULE
ZINC90396262
27   29    1
SMALL
USER_CHARGES


@<TRIPOS>ATOM
      1 C1         -8.2541    2.1101    0.0000 C.3       1 UNK         0.0000 
      2 O2         -6.9541    2.1090    0.0000 O.3       1 UNK         0.0000 
      3 C3         -6.3051    0.9827    0.0000 C.3       1 UNK         0.0000 
      4 C4         -5.0051    0.9816    0.0000 C.ar      1 UNK         0.0000 
      5 N5         -4.2399    2.0326    0.0000 N.2       1 UNK         0.0000 
      6 C6         -3.0038    1.6301    0.0000 C.ar      1 UNK         0.0000 
      7 N7         -3.0049    0.3298    0.0000 N.pl3     1 UNK         0.0000 
      8 N8         -4.2417   -0.0706    0.0000 N.2       1 UNK         0.0000 
      9 C9         -1.8796   -0.3210    0.0000 C.3       1 UNK         0.0000 
     10 C10        -0.7532    0.3283    0.0000 C.3       1 UNK         0.0000 
     11 C11        -0.7524    1.6283    0.0000 C.3       1 UNK         0.0000 
     12 C12        -1.8777    2.2791    0.0000 C.3       1 UNK         0.0000 
     13 N13         0.3721   -0.3228    0.0000 N.4       1 UNK         0.0000 
     14 C14         1.4981    0.3264    0.0000 C.3       1 UNK         0.0000 
     15 C15         2.6234   -0.3246    0.0000 C.3       1 UNK         0.0000 
     16 C16         3.7498    0.3246    0.0000 C.2       1 UNK         0.0000 
     17 O17         3.7508    1.6246    0.0000 O.2       1 UNK         0.0000 
     18 N18         4.8751   -0.3264    0.0000 N.am      1 UNK         0.0000 
     19 C19         6.0014    0.3228    0.0000 C.ar      1 UNK         0.0000 
     20 C20         6.0024    1.6228    0.0000 C.ar      1 UNK         0.0000 
     21 C21         7.1288    2.2720    0.0000 C.ar      1 UNK         0.0000 
     22 C22         8.2541    1.6210    0.0000 C.ar      1 UNK         0.0000 
     23 C23         8.2530    0.3210    0.0000 C.ar      1 UNK         0.0000 
     24 C24         7.1270   -0.3283    0.0000 C.ar      1 UNK         0.0000 
     25 O25         7.1259   -1.6280    0.0000 O.3       1 UNK         0.0000 
     26 C26         8.2512   -2.2791    0.0000 C.3       1 UNK         0.0000 
     27 C27         1.4992    1.6265    0.0000 C.3       1 UNK         0.0000 
@<TRIPOS>BOND
     1    1    2 1    
     2    2    3 1    
     3    3    4 1    
     4    4    8 ar   
     5    4    5 ar   
     6    5    6 ar   
     7    6   12 1    
     8    6    7 ar   
     9    7    8 ar   
    10    7    9 1    
    11    9   10 1    
    12   10   11 1    
    13   10   13 1    
    14   11   12 1    
    15   13   14 1    
    16   14   15 1    
    17   14   27 1    
    18   15   16 1    
    19   16   17 2    
    20   16   18 am   BACKBONE|DICT|INTERRES
    21   18   19 1    
    22   19   24 ar   
    23   19   20 ar   
    24   20   21 ar   
    25   21   22 ar   
    26   22   23 ar   
    27   23   24 ar   
    28   24   25 1    
    29   25   26 1    
@<TRIPOS>SUBSTRUCTURE
     1 UNK         1 GROUP             0       ****    0 ROOT    
