@<TRIPOS>MOLECULE
ZINC83888809
31   34    1
SMALL
USER_CHARGES


@<TRIPOS>ATOM
      1 O1         -0.1990   -1.5326    0.0000 O.2       1 UNK         0.0000 
      2 C2         -0.1995   -0.2560    0.0000 C.2       1 UNK         0.0000 
      3 C3         -1.3074    0.3824    0.0000 C.3       1 UNK         0.0000 
      4 N4         -2.4160   -0.2734    0.0000 N.pl3     1 UNK         0.0000 
      5 C5         -3.5948    0.2624    0.0000 C.ar      1 UNK         0.0000 
      6 N6         -4.4551   -0.7336    0.0000 N.2       1 UNK         0.0000 
      7 C7         -3.8373   -1.8287    0.0000 C.ar      1 UNK         0.0000 
      8 C8         -2.5280   -1.5153    0.0000 C.ar      1 UNK         0.0000 
      9 C9         -1.6466   -2.5266    0.0000 C.ar      1 UNK         0.0000 
     10 C10        -2.0206   -3.7897    0.0000 C.ar      1 UNK         0.0000 
     11 C11        -3.3324   -4.0411    0.0000 C.ar      1 UNK         0.0000 
     12 C12        -4.2572   -3.0681    0.0000 C.ar      1 UNK         0.0000 
     13 C13        -3.8521    1.5086    0.0000 C.ar      1 UNK         0.0000 
     14 C14        -2.8665    2.3536    0.0000 C.ar      1 UNK         0.0000 
     15 C15        -3.1468    3.6133    0.0000 C.ar      1 UNK         0.0000 
     16 C16        -4.3644    4.0411    0.0000 C.ar      1 UNK         0.0000 
     17 C17        -5.3202    3.1633    0.0000 C.ar      1 UNK         0.0000 
     18 C18        -5.0833    1.8946    0.0000 C.ar      1 UNK         0.0000 
     19 Cl19       -6.0278    1.0555    0.0000 Cl        1 UNK         0.0000 
     20 Cl20       -6.5437    3.5704    0.0000 Cl        1 UNK         0.0000 
     21 N21         0.9068    0.3814    0.0000 N.am      1 UNK         0.0000 
     22 C22         2.0124   -0.2594    0.0000 C.3       1 UNK         0.0000 
     23 C23         3.1187    0.3770    0.0000 C.2       1 UNK         0.0000 
     24 O24         3.1205    1.6531    0.0000 O.2       1 UNK         0.0000 
     25 N25         4.2353   -0.2693    0.0000 N.am      1 UNK         0.0000 
     26 C26         5.3725    0.4209    0.0000 C.3       1 UNK         0.0000 
     27 C27         6.5135   -0.2729    0.0000 C.3       1 UNK         0.0000 
     28 C28         6.5437   -1.6031    0.0000 C.3       1 UNK         0.0000 
     29 C29         5.3766   -2.2415    0.0000 C.3       1 UNK         0.0000 
     30 C30         4.2054   -1.5995    0.0000 C.3       1 UNK         0.0000 
     31 C31         2.0104   -1.5359    0.0000 C.3       1 UNK         0.0000 
@<TRIPOS>BOND
     1    1    2 2    
     2    2    3 1    
     3    2   21 am   BACKBONE|DICT|INTERRES
     4    3    4 1    
     5    4    8 ar   
     6    4    5 ar   
     7    5    6 ar   
     8    5   13 1    
     9    6    7 ar   
    10    7   12 ar   
    11    7    8 ar   
    12    8    9 ar   
    13    9   10 ar   
    14   10   11 ar   
    15   11   12 ar   
    16   13   18 ar   
    17   13   14 ar   
    18   14   15 ar   
    19   15   16 ar   
    20   16   17 ar   
    21   17   18 ar   
    22   17   20 1    
    23   18   19 1    
    24   21   22 1    
    25   22   23 1    
    26   22   31 1    
    27   23   24 2    
    28   23   25 am   BACKBONE|DICT|INTERRES
    29   25   30 1    
    30   25   26 1    
    31   26   27 1    
    32   27   28 1    
    33   28   29 1    
    34   29   30 1    
@<TRIPOS>SUBSTRUCTURE
     1 UNK         1 GROUP             0       ****    0 ROOT    
