@<TRIPOS>MOLECULE
ZINC88493096
19   20    1
SMALL
USER_CHARGES


@<TRIPOS>ATOM
      1 C1         -4.3028    1.3446    0.0000 C.3       1 UNK         0.0000 
      2 C2         -3.1796    1.9993    0.0000 C.2       1 UNK         0.0000 
      3 O3         -3.1853    3.2993    0.0000 O.2       1 UNK         0.0000 
      4 C4         -2.0509    1.3542    0.0000 C.3       1 UNK         0.0000 
      5 C5         -0.9279    2.0089    0.0000 C.3       1 UNK         0.0000 
      6 S6          0.2007    1.3638    0.0000 S.3       1 UNK         0.0000 
      7 C7          1.3237    2.0183    0.0000 C.ar      1 UNK         0.0000 
      8 N8          1.4542    3.3120    0.0000 N.2       1 UNK         0.0000 
      9 N9          2.7246    3.5871    0.0000 N.2       1 UNK         0.0000 
     10 N10         3.3795    2.4642    0.0000 N.2       1 UNK         0.0000 
     11 N11         2.5134    1.4949    0.0000 N.pl3     1 UNK         0.0000 
     12 C12         2.7890    0.2243    0.0000 C.ar      1 UNK         0.0000 
     13 C13         1.8265   -0.6496    0.0000 C.ar      1 UNK         0.0000 
     14 C14         2.1021   -1.9202    0.0000 C.ar      1 UNK         0.0000 
     15 C15         3.3402   -2.3167    0.0000 C.ar      1 UNK         0.0000 
     16 C16         4.3028   -1.4429    0.0000 C.ar      1 UNK         0.0000 
     17 C17         4.0272   -0.1725    0.0000 C.ar      1 UNK         0.0000 
     18 O18         3.6159   -3.5871    0.0000 O.3       1 UNK         0.0000 
     19 C19        -2.0454    0.0542    0.0000 C.3       1 UNK         0.0000 
@<TRIPOS>BOND
     1    1    2 1    
     2    2    3 2    
     3    2    4 1    
     4    4    5 1    
     5    4   19 1    
     6    5    6 1    
     7    6    7 1    
     8    7   11 ar   
     9    7    8 ar   
    10    8    9 ar   
    11    9   10 ar   
    12   10   11 ar   
    13   11   12 1    
    14   12   17 ar   
    15   12   13 ar   
    16   13   14 ar   
    17   14   15 ar   
    18   15   16 ar   
    19   15   18 1    
    20   16   17 ar   
@<TRIPOS>SUBSTRUCTURE
     1 UNK         1 GROUP             0       ****    0 ROOT    
