@<TRIPOS>MOLECULE
ZINC82086582
24   27    1
SMALL
USER_CHARGES


@<TRIPOS>ATOM
      1 O1          5.5665   -1.3880    0.0000 O.2       1 UNK         0.0000 
      2 C2          4.2953   -1.6600    0.0000 C.2       1 UNK         0.0000 
      3 N3          3.7680   -2.8485    0.0000 N.am      1 UNK         0.0000 
      4 C4          2.4750   -2.7143    0.0000 C.2       1 UNK         0.0000 
      5 O5          1.6066   -3.6816    0.0000 O.2       1 UNK         0.0000 
      6 C6          2.2030   -1.4432    0.0000 C.3       1 UNK         0.0000 
      7 C7          3.3281   -0.7916    0.0000 C.3       1 UNK         0.0000 
      8 C8          1.0782   -2.0945    0.0000 C.3       1 UNK         0.0000 
      9 C9          0.1108   -1.2261    0.0000 C.3       1 UNK         0.0000 
     10 N10         0.6381   -0.0376    0.0000 N.am      1 UNK         0.0000 
     11 C11         1.9311   -0.1717    0.0000 C.3       1 UNK         0.0000 
     12 C12        -0.0135    1.0872    0.0000 C.2       1 UNK         0.0000 
     13 O13         0.6352    2.2141    0.0000 O.2       1 UNK         0.0000 
     14 C14        -1.3135    1.0857    0.0000 C.2       1 UNK         0.0000 
     15 S15        -2.0764    0.0329    0.0000 S.3       1 UNK         0.0000 
     16 C16        -3.3133    0.4330    0.0000 C.ar      1 UNK         0.0000 
     17 C17        -3.3151    1.7331    0.0000 C.ar      1 UNK         0.0000 
     18 C18        -2.0790    2.1363    0.0000 C.2       1 UNK         0.0000 
     19 Cl19       -1.6789    3.3729    0.0000 Cl        1 UNK         0.0000 
     20 C20        -4.4414    2.3815    0.0000 C.ar      1 UNK         0.0000 
     21 F21        -4.4432    3.6816    0.0000 F         1 UNK         0.0000 
     22 C22        -5.5665    1.7302    0.0000 C.ar      1 UNK         0.0000 
     23 C23        -5.5649    0.4302    0.0000 C.ar      1 UNK         0.0000 
     24 C24        -4.4383   -0.2185    0.0000 C.ar      1 UNK         0.0000 
@<TRIPOS>BOND
     1    1    2 2    
     2    2    7 1    
     3    2    3 am   BACKBONE|DICT|INTERRES
     4    3    4 am   BACKBONE|DICT|INTERRES
     5    4    5 2    
     6    4    6 1    
     7    6   11 1    
     8    6    7 1    
     9    6    8 1    
    10    8    9 1    
    11    9   10 1    
    12   10   11 1    
    13   10   12 am   BACKBONE|DICT|INTERRES
    14   12   13 2    
    15   12   14 1    
    16   14   18 2    
    17   14   15 1    
    18   15   16 1    
    19   16   24 ar   
    20   16   17 ar   
    21   17   18 1    
    22   17   20 ar   
    23   18   19 1    
    24   20   21 1    
    25   20   22 ar   
    26   22   23 ar   
    27   23   24 ar   
@<TRIPOS>SUBSTRUCTURE
     1 UNK         1 GROUP             0       ****    0 ROOT    
