@<TRIPOS>MOLECULE
ZINC74562163
27   30    1
SMALL
USER_CHARGES


@<TRIPOS>ATOM
      1 O1          1.8073   -1.1379    0.0000 O.2       1 UNK         0.0000 
      2 C2          1.8071    0.1617    0.0000 C.2       1 UNK         0.0000 
      3 C3          2.9495    0.8090    0.0000 C.3       1 UNK         0.0000 
      4 C4          3.0784    2.1078    0.0000 C.3       1 UNK         0.0000 
      5 C5          4.3458    2.3619    0.0000 C.2       1 UNK         0.0000 
      6 O6          4.8842    3.5587    0.0000 O.2       1 UNK         0.0000 
      7 N7          4.9964    1.2457    0.0000 N.am      1 UNK         0.0000 
      8 C8          4.1099    0.2872    0.0000 C.3       1 UNK         0.0000 
      9 C9          4.3939   -1.0132    0.0000 C.ar      1 UNK         0.0000 
     10 C10         3.4034   -1.8558    0.0000 C.ar      1 UNK         0.0000 
     11 C11         3.6978   -3.1229    0.0000 C.ar      1 UNK         0.0000 
     12 C12         4.9195   -3.5587    0.0000 C.ar      1 UNK         0.0000 
     13 N13         5.8689   -2.6701    0.0000 N.ar      1 UNK         0.0000 
     14 C14         5.6350   -1.3904    0.0000 C.ar      1 UNK         0.0000 
     15 C15         6.2747    1.1046    0.0000 C.3       1 UNK         0.0000 
     16 N16         0.6849    0.8071    0.0000 N.am      1 UNK         0.0000 
     17 C17        -0.4586    0.1617    0.0000 C.ar      1 UNK         0.0000 
     18 C18        -0.5885   -1.1400    0.0000 C.ar      1 UNK         0.0000 
     19 N19        -1.8577   -1.3868    0.0000 N.2       1 UNK         0.0000 
     20 N20        -2.5083   -0.2693    0.0000 N.pl3     1 UNK         0.0000 
     21 C21        -1.6145    0.6858    0.0000 C.ar      1 UNK         0.0000 
     22 C22        -3.7838   -0.1230    0.0000 C.3       1 UNK         0.0000 
     23 C23        -4.5612   -1.1758    0.0000 C.3       1 UNK         0.0000 
     24 C24        -5.8621   -1.1610    0.0000 C.3       1 UNK         0.0000 
     25 C25        -6.2747   -2.4061    0.0000 C.3       1 UNK         0.0000 
     26 C26        -5.2227   -3.1710    0.0000 C.3       1 UNK         0.0000 
     27 O27        -4.1590   -2.4165    0.0000 O.3       1 UNK         0.0000 
@<TRIPOS>BOND
     1    1    2 2    
     2    2    3 1    
     3    2   16 am   BACKBONE|DICT|INTERRES
     4    3    8 1    
     5    3    4 1    
     6    4    5 1    
     7    5    6 2    
     8    5    7 am   BACKBONE|DICT|INTERRES
     9    7    8 1    
    10    7   15 1    
    11    8    9 1    
    12    9   14 ar   
    13    9   10 ar   
    14   10   11 ar   
    15   11   12 ar   
    16   12   13 ar   
    17   13   14 ar   
    18   16   17 1    
    19   17   21 ar   
    20   17   18 ar   
    21   18   19 ar   
    22   19   20 ar   
    23   20   21 ar   
    24   20   22 1    
    25   22   23 1    
    26   23   27 1    
    27   23   24 1    
    28   24   25 1    
    29   25   26 1    
    30   26   27 1    
@<TRIPOS>SUBSTRUCTURE
     1 UNK         1 GROUP             0       ****    0 ROOT    
