@<TRIPOS>MOLECULE
ZINC38487760
33   36    1
SMALL
USER_CHARGES


@<TRIPOS>ATOM
      1 C1         -8.8055    1.8105    0.0000 C.3       1 UNK         0.0000 
      2 C2         -7.6790    1.1624    0.0000 C.3       1 UNK         0.0000 
      3 N3         -6.5551    1.8141    0.0000 N.pl3     1 UNK         0.0000 
      4 S4         -5.4289    1.1681    0.0000 S.o2      1 UNK         0.0000 
      5 O5         -4.7839    2.2969    0.0000 O.2       1 UNK         0.0000 
      6 O6         -6.0728    0.0390    0.0000 O.2       1 UNK         0.0000 
      7 C7         -4.2881    0.5207    0.0000 C.ar      1 UNK         0.0000 
      8 C8         -4.2863   -0.7662    0.0000 C.ar      1 UNK         0.0000 
      9 C9         -3.1356   -1.3979    0.0000 C.ar      1 UNK         0.0000 
     10 C10        -2.0130   -0.7532    0.0000 C.ar      1 UNK         0.0000 
     11 C11        -2.0434    0.5483    0.0000 C.ar      1 UNK         0.0000 
     12 C12        -3.1741    1.1933    0.0000 C.ar      1 UNK         0.0000 
     13 C13        -0.8156    0.9562    0.0000 C.2       1 UNK         0.0000 
     14 C14        -0.4235    2.2096    0.0000 C.3       1 UNK         0.0000 
     15 C15        -0.0263   -0.0827    0.0000 C.2       1 UNK         0.0000 
     16 O16        -0.7818   -1.1327    0.0000 O.3       1 UNK         0.0000 
     17 C17         1.2632   -0.0749    0.0000 C.2       1 UNK         0.0000 
     18 O18         2.0247    0.9697    0.0000 O.3       1 UNK         0.0000 
     19 N19         3.2627    0.5917    0.0000 N.2       1 UNK         0.0000 
     20 C20         3.2588   -0.7160    0.0000 C.2       1 UNK         0.0000 
     21 N21         2.0533   -1.1184    0.0000 N.2       1 UNK         0.0000 
     22 C22         4.3489   -1.4842    0.0000 C.ar      1 UNK         0.0000 
     23 C23         4.1846   -2.7766    0.0000 C.ar      1 UNK         0.0000 
     24 C24         5.2591   -3.5120    0.0000 C.ar      1 UNK         0.0000 
     25 C25         6.4547   -3.0111    0.0000 C.ar      1 UNK         0.0000 
     26 C26         6.5533   -1.7125    0.0000 C.ar      1 UNK         0.0000 
     27 C27         5.5173   -0.9234    0.0000 C.ar      1 UNK         0.0000 
     28 O28         7.7507   -1.1735    0.0000 O.3       1 UNK         0.0000 
     29 C29         8.8055   -1.9324    0.0000 C.3       1 UNK         0.0000 
     30 O30         7.4988   -3.7629    0.0000 O.3       1 UNK         0.0000 
     31 C31         8.6840   -3.2281    0.0000 C.3       1 UNK         0.0000 
     32 C32        -6.5572    3.1143    0.0000 C.3       1 UNK         0.0000 
     33 C33        -7.6831    3.7629    0.0000 C.3       1 UNK         0.0000 
@<TRIPOS>BOND
     1    1    2 1    
     2    2    3 1    
     3    3    4 1    
     4    3   32 1    
     5    4    5 2    
     6    4    6 2    
     7    4    7 1    
     8    7   12 ar   
     9    7    8 ar   
    10    8    9 ar   
    11    9   10 ar   
    12   10   16 1    
    13   10   11 ar   
    14   11   12 ar   
    15   11   13 1    
    16   13   14 1    
    17   13   15 2    
    18   15   16 1    
    19   15   17 1    
    20   17   21 2    
    21   17   18 1    
    22   18   19 1    
    23   19   20 2    
    24   20   21 1    
    25   20   22 1    
    26   22   27 ar   
    27   22   23 ar   
    28   23   24 ar   
    29   24   25 ar   
    30   25   26 ar   
    31   25   30 1    
    32   26   27 ar   
    33   26   28 1    
    34   28   29 1    
    35   30   31 1    
    36   32   33 1    
@<TRIPOS>SUBSTRUCTURE
     1 UNK         1 GROUP             0       ****    0 ROOT    
