@<TRIPOS>MOLECULE
ZINC73680033
25   27    1
SMALL
USER_CHARGES


@<TRIPOS>ATOM
      1 C1          1.6874   -1.6263    0.0000 C.3       1 UNK         0.0000 
      2 C2          0.5611   -2.2755    0.0000 C.3       1 UNK         0.0000 
      3 C3         -0.5642   -1.6245    0.0000 C.3       1 UNK         0.0000 
      4 N4         -1.6905   -2.2737    0.0000 N.4       1 UNK         0.0000 
      5 C5         -1.6915   -3.5736    0.0000 C.3       1 UNK         0.0000 
      6 C6         -2.8178   -4.2228    0.0000 C.3       1 UNK         0.0000 
      7 C7         -3.9431   -3.5718    0.0000 C.ar      1 UNK         0.0000 
      8 C8         -3.9421   -2.2718    0.0000 C.ar      1 UNK         0.0000 
      9 C9         -2.8158   -1.6226    0.0000 C.3       1 UNK         0.0000 
     10 C10        -5.0673   -1.6208    0.0000 C.ar      1 UNK         0.0000 
     11 C11        -6.1936   -2.2700    0.0000 C.ar      1 UNK         0.0000 
     12 C12        -6.1947   -3.5700    0.0000 C.ar      1 UNK         0.0000 
     13 C13        -5.0694   -4.2210    0.0000 C.ar      1 UNK         0.0000 
     14 C14        -0.5632   -0.3245    0.0000 C.3       1 UNK         0.0000 
     15 N15         0.5632    0.3245    0.0000 N.am      1 UNK         0.0000 
     16 C16         0.5642    1.6245    0.0000 C.2       1 UNK         0.0000 
     17 O17        -0.5611    2.2755    0.0000 O.2       1 UNK         0.0000 
     18 N18         1.6905    2.2737    0.0000 N.am      1 UNK         0.0000 
     19 C19         2.8158    1.6226    0.0000 C.3       1 UNK         0.0000 
     20 C20         3.9421    2.2718    0.0000 C.3       1 UNK         0.0000 
     21 C21         3.9431    3.5718    0.0000 C.3       1 UNK         0.0000 
     22 C22         2.8178    4.2228    0.0000 C.3       1 UNK         0.0000 
     23 C23         1.6915    3.5736    0.0000 C.3       1 UNK         0.0000 
     24 O24         5.0694    4.2210    0.0000 O.3       1 UNK         0.0000 
     25 C25         6.1947    3.5700    0.0000 C.3       1 UNK         0.0000 
@<TRIPOS>BOND
     1    1    2 1    
     2    2    3 1    
     3    3    4 1    
     4    3   14 1    
     5    4    9 1    
     6    4    5 1    
     7    5    6 1    
     8    6    7 1    
     9    7   13 ar   
    10    7    8 ar   
    11    8    9 1    
    12    8   10 ar   
    13   10   11 ar   
    14   11   12 ar   
    15   12   13 ar   
    16   14   15 1    
    17   15   16 am   BACKBONE|DICT|INTERRES
    18   16   17 2    
    19   16   18 am   BACKBONE|DICT|INTERRES
    20   18   23 1    
    21   18   19 1    
    22   19   20 1    
    23   20   21 1    
    24   21   22 1    
    25   21   24 1    
    26   22   23 1    
    27   24   25 1    
@<TRIPOS>SUBSTRUCTURE
     1 UNK         1 GROUP             0       ****    0 ROOT    
