@<TRIPOS>MOLECULE
ZINC14265220
30   33    1
SMALL
USER_CHARGES


@<TRIPOS>ATOM
      1 C1          5.0602    6.1792    0.0000 C.3       1 UNK         0.0000 
      2 O2          3.9349    5.5282    0.0000 O.3       1 UNK         0.0000 
      3 C3          3.9359    4.2282    0.0000 C.2       1 UNK         0.0000 
      4 O4          5.0623    3.5792    0.0000 O.2       1 UNK         0.0000 
      5 C5          2.8106    3.5774    0.0000 C.ar      1 UNK         0.0000 
      6 C6          1.6843    4.2263    0.0000 C.ar      1 UNK         0.0000 
      7 C7          0.5590    3.5756    0.0000 C.ar      1 UNK         0.0000 
      8 C8          0.5600    2.2755    0.0000 C.ar      1 UNK         0.0000 
      9 C9          1.6864    1.6263    0.0000 C.ar      1 UNK         0.0000 
     10 C10         2.8117    2.2774    0.0000 C.ar      1 UNK         0.0000 
     11 N11         1.6874    0.3263    0.0000 N.am      1 UNK         0.0000 
     12 C12         0.5621   -0.3245    0.0000 C.2       1 UNK         0.0000 
     13 O13        -0.5642    0.3245    0.0000 O.2       1 UNK         0.0000 
     14 C14         0.5632   -1.6245    0.0000 C.ar      1 UNK         0.0000 
     15 C15        -0.5621   -2.2755    0.0000 C.ar      1 UNK         0.0000 
     16 C16        -0.5611   -3.5756    0.0000 C.ar      1 UNK         0.0000 
     17 N17         0.5652   -4.2245    0.0000 N.ar      1 UNK         0.0000 
     18 C18         1.6905   -3.5737    0.0000 C.ar      1 UNK         0.0000 
     19 C19         1.6895   -2.2737    0.0000 C.ar      1 UNK         0.0000 
     20 C20         2.9255   -1.8710    0.0000 C.2       1 UNK         0.0000 
     21 C21         3.3262   -0.6344    0.0000 C.3       1 UNK         0.0000 
     22 N22         3.6907   -2.9222    0.0000 N.2       1 UNK         0.0000 
     23 O23         2.9271   -3.9744    0.0000 O.3       1 UNK         0.0000 
     24 C24        -1.6864   -4.2263    0.0000 C.ar      1 UNK         0.0000 
     25 C25        -1.6853   -5.5264    0.0000 C.ar      1 UNK         0.0000 
     26 C26        -2.8106   -6.1774    0.0000 C.ar      1 UNK         0.0000 
     27 C27        -3.9370   -5.5282    0.0000 C.ar      1 UNK         0.0000 
     28 C28        -3.9380   -4.2282    0.0000 C.ar      1 UNK         0.0000 
     29 C29        -2.8127   -3.5771    0.0000 C.ar      1 UNK         0.0000 
     30 C30        -5.0623   -6.1792    0.0000 C.3       1 UNK         0.0000 
@<TRIPOS>BOND
     1    1    2 1    
     2    2    3 1    
     3    3    4 2    
     4    3    5 1    
     5    5   10 ar   
     6    5    6 ar   
     7    6    7 ar   
     8    7    8 ar   
     9    8    9 ar   
    10    9   10 ar   
    11    9   11 1    
    12   11   12 am   BACKBONE|DICT|INTERRES
    13   12   13 2    
    14   12   14 1    
    15   14   19 ar   
    16   14   15 ar   
    17   15   16 ar   
    18   16   17 ar   
    19   16   24 1    
    20   17   18 ar   
    21   18   23 1    
    22   18   19 ar   
    23   19   20 1    
    24   20   21 1    
    25   20   22 2    
    26   22   23 1    
    27   24   29 ar   
    28   24   25 ar   
    29   25   26 ar   
    30   26   27 ar   
    31   27   28 ar   
    32   27   30 1    
    33   28   29 ar   
@<TRIPOS>SUBSTRUCTURE
     1 UNK         1 GROUP             0       ****    0 ROOT    
