@<TRIPOS>MOLECULE
ZINC78656055
23   25    1
SMALL
USER_CHARGES


@<TRIPOS>ATOM
      1 C1         -4.4955   -5.2088    0.0000 C.3       1 UNK         0.0000 
      2 C2         -3.3683   -5.8567    0.0000 C.3       1 UNK         0.0000 
      3 N3         -2.2438   -5.2044    0.0000 N.4       1 UNK         0.0000 
      4 C4         -1.1167   -5.8520    0.0000 C.3       1 UNK         0.0000 
      5 C5          0.0078   -5.1999    0.0000 C.3       1 UNK         0.0000 
      6 N6          0.0052   -3.8999    0.0000 N.pl3     1 UNK         0.0000 
      7 C7         -1.1219   -3.2523    0.0000 C.3       1 UNK         0.0000 
      8 C8         -2.2464   -3.9043    0.0000 C.3       1 UNK         0.0000 
      9 C9          1.1297   -3.2476    0.0000 C.ar      1 UNK         0.0000 
     10 N10         2.2568   -3.8955    0.0000 N.pl3     1 UNK         0.0000 
     11 C11         3.3816   -3.2432    0.0000 C.ar      1 UNK         0.0000 
     12 C12         3.3787   -1.9431    0.0000 C.ar      1 UNK         0.0000 
     13 C13         2.2516   -1.2955    0.0000 C.ar      1 UNK         0.0000 
     14 C14         1.1271   -1.9476    0.0000 C.ar      1 UNK         0.0000 
     15 C15         2.2490    0.0046    0.0000 C.3       1 UNK         0.0000 
     16 N16         3.3735    0.6569    0.0000 N.2       1 UNK         0.0000 
     17 C17         3.3709    1.9569    0.0000 C.ar      1 UNK         0.0000 
     18 C18         4.4955    2.6090    0.0000 C.ar      1 UNK         0.0000 
     19 C19         4.4929    3.9090    0.0000 C.ar      1 UNK         0.0000 
     20 C20         3.3657    4.5567    0.0000 C.ar      1 UNK         0.0000 
     21 C21         2.2412    3.9046    0.0000 C.ar      1 UNK         0.0000 
     22 N22         2.2438    2.6046    0.0000 N.ar      1 UNK         0.0000 
     23 Cl23        3.3631    5.8567    0.0000 Cl        1 UNK         0.0000 
@<TRIPOS>BOND
     1    1    2 1    
     2    2    3 1    
     3    3    8 1    
     4    3    4 1    
     5    4    5 1    
     6    5    6 1    
     7    6    7 1    
     8    6    9 1    
     9    7    8 1    
    10    9   14 ar   
    11    9   10 ar   
    12   10   11 ar   
    13   11   12 ar   
    14   12   13 ar   
    15   13   14 ar   
    16   13   15 1    
    17   15   16 1    
    18   16   17 1    
    19   17   22 ar   
    20   17   18 ar   
    21   18   19 ar   
    22   19   20 ar   
    23   20   21 ar   
    24   20   23 1    
    25   21   22 ar   
@<TRIPOS>SUBSTRUCTURE
     1 UNK         1 GROUP             0       ****    0 ROOT    
