@<TRIPOS>MOLECULE
ZINC80890412
23   23    1
SMALL
USER_CHARGES


@<TRIPOS>ATOM
      1 C1          6.7550   -1.2974    0.0000 C.3       1 UNK         0.0000 
      2 C2          5.6286   -0.6482    0.0000 C.3       1 UNK         0.0000 
      3 C3          4.5033   -1.2993    0.0000 C.3       1 UNK         0.0000 
      4 C4          3.3770   -0.6500    0.0000 C.3       1 UNK         0.0000 
      5 C5          3.3759    0.6500    0.0000 C.ar      1 UNK         0.0000 
      6 C6          2.2496    1.2993    0.0000 C.ar      1 UNK         0.0000 
      7 C7          2.2485    2.5990    0.0000 C.ar      1 UNK         0.0000 
      8 C8          3.3739    3.2501    0.0000 C.ar      1 UNK         0.0000 
      9 C9          4.5002    2.6008    0.0000 C.ar      1 UNK         0.0000 
     10 C10         4.5012    1.3008    0.0000 C.ar      1 UNK         0.0000 
     11 N11         2.2517   -1.3011    0.0000 N.am      1 UNK         0.0000 
     12 C12         1.1253   -0.6518    0.0000 C.2       1 UNK         0.0000 
     13 O13         1.1243    0.6482    0.0000 O.2       1 UNK         0.0000 
     14 C14        -0.0000   -1.3026    0.0000 C.3       1 UNK         0.0000 
     15 C15        -1.1263   -0.6537    0.0000 C.3       1 UNK         0.0000 
     16 C16        -2.2517   -1.3045    0.0000 C.3       1 UNK         0.0000 
     17 C17        -3.3780   -0.6555    0.0000 C.3       1 UNK         0.0000 
     18 N18        -4.5033   -1.3063    0.0000 N.am      1 UNK         0.0000 
     19 C19        -5.6297   -0.6573    0.0000 C.2       1 UNK         0.0000 
     20 O20        -5.6307    0.6427    0.0000 O.2       1 UNK         0.0000 
     21 N21        -6.7550   -1.3081    0.0000 N.am      1 UNK         0.0000 
     22 C22         4.5044   -2.5993    0.0000 C.3       1 UNK         0.0000 
     23 C23         3.3790   -3.2501    0.0000 C.3       1 UNK         0.0000 
@<TRIPOS>BOND
     1    1    2 1    
     2    2    3 1    
     3    3    4 1    
     4    3   22 1    
     5    4    5 1    
     6    4   11 1    
     7    5   10 ar   
     8    5    6 ar   
     9    6    7 ar   
    10    7    8 ar   
    11    8    9 ar   
    12    9   10 ar   
    13   11   12 am   BACKBONE|DICT|INTERRES
    14   12   13 2    
    15   12   14 1    
    16   14   15 1    
    17   15   16 1    
    18   16   17 1    
    19   17   18 1    
    20   18   19 am   BACKBONE|DICT|INTERRES
    21   19   20 2    
    22   19   21 am   BACKBONE|DICT|INTERRES
    23   22   23 1    
@<TRIPOS>SUBSTRUCTURE
     1 UNK         1 GROUP             0       ****    0 ROOT    
