@<TRIPOS>MOLECULE
ZINC40268073
26   28    1
SMALL
USER_CHARGES


@<TRIPOS>ATOM
      1 O1          0.5934    1.5505    0.0000 O.2       1 UNK         0.0000 
      2 C2          0.5939    0.2528    0.0000 C.2       1 UNK         0.0000 
      3 C3         -0.5303   -0.3972    0.0000 C.3       1 UNK         0.0000 
      4 C4         -1.6574    0.2495    0.0000 C.3       1 UNK         0.0000 
      5 N5         -2.7650   -0.4060    0.0000 N.pl3     1 UNK         0.0000 
      6 C6         -2.9143   -1.6966    0.0000 C.ar      1 UNK         0.0000 
      7 C7         -4.1709   -1.9961    0.0000 C.ar      1 UNK         0.0000 
      8 C8         -4.8159   -0.8615    0.0000 C.ar      1 UNK         0.0000 
      9 C9         -3.9829    0.1166    0.0000 C.ar      1 UNK         0.0000 
     10 C10        -4.3708    1.3623    0.0000 C.ar      1 UNK         0.0000 
     11 C11        -5.6461    1.6018    0.0000 C.ar      1 UNK         0.0000 
     12 Cl12       -6.0583    2.8463    0.0000 Cl        1 UNK         0.0000 
     13 C13        -6.5211    0.6549    0.0000 C.ar      1 UNK         0.0000 
     14 C14        -6.0855   -0.5773    0.0000 C.ar      1 UNK         0.0000 
     15 N15         1.7189   -0.3969    0.0000 N.am      1 UNK         0.0000 
     16 C16         2.8444    0.2515    0.0000 C.3       1 UNK         0.0000 
     17 C17         3.9733   -0.4117    0.0000 C.3       1 UNK         0.0000 
     18 C18         5.2603   -0.5903    0.0000 C.3       1 UNK         0.0000 
     19 C19         5.6697   -1.8217    0.0000 C.3       1 UNK         0.0000 
     20 C20         4.8715   -2.8463    0.0000 C.3       1 UNK         0.0000 
     21 C21         3.5988   -2.5849    0.0000 C.3       1 UNK         0.0000 
     22 C22         3.1108   -1.3828    0.0000 C.3       1 UNK         0.0000 
     23 C23         4.4022    0.8242    0.0000 C.3       1 UNK         0.0000 
     24 C24         5.6785    1.0601    0.0000 C.2       1 UNK         0.0000 
     25 O25         6.5211    0.0727    0.0000 O.2       1 UNK         0.0000 
     26 O26         6.1125    2.2832    0.0000 O.3       1 UNK         0.0000 
@<TRIPOS>BOND
     1    1    2 2    
     2    2    3 1    
     3    2   15 am   BACKBONE|DICT|INTERRES
     4    3    4 1    
     5    4    5 1    
     6    5    9 ar   
     7    5    6 ar   
     8    6    7 ar   
     9    7    8 ar   
    10    8   14 ar   
    11    8    9 ar   
    12    9   10 ar   
    13   10   11 ar   
    14   11   12 1    
    15   11   13 ar   
    16   13   14 ar   
    17   15   16 1    
    18   16   17 1    
    19   17   22 1    
    20   17   18 1    
    21   17   23 1    
    22   18   19 1    
    23   19   20 1    
    24   20   21 1    
    25   21   22 1    
    26   23   24 1    
    27   24   25 2    
    28   24   26 1    
@<TRIPOS>SUBSTRUCTURE
     1 UNK         1 GROUP             0       ****    0 ROOT    
