@<TRIPOS>MOLECULE
ZINC65374586
26   29    1
SMALL
USER_CHARGES


@<TRIPOS>ATOM
      1 C1          7.3791   -1.6725    0.0000 C.3       1 UNK         0.0000 
      2 C2          6.1288   -1.2725    0.0000 C.2       1 UNK         0.0000 
      3 N3          5.0836   -2.0448    0.0000 N.2       1 UNK         0.0000 
      4 O4          4.0268   -1.2832    0.0000 O.3       1 UNK         0.0000 
      5 C5          4.4289   -0.0480    0.0000 C.2       1 UNK         0.0000 
      6 C6          5.7285   -0.0368    0.0000 C         1 UNK         0.0000 
      7 C7          3.6610    0.9996    0.0000 C.3       1 UNK         0.0000 
      8 C8          4.0538    2.2465    0.0000 C.3       1 UNK         0.0000 
      9 C9          3.0083    3.0026    0.0000 C.3       1 UNK         0.0000 
     10 C10         1.9470    2.2389    0.0000 C.3       1 UNK         0.0000 
     11 N11         2.3593    1.0048    0.0000 N.4       1 UNK         0.0000 
     12 C12         1.5925   -0.0532    0.0000 C.3       1 UNK         0.0000 
     13 C13         0.2892    0.0708    0.0000 C.ar      1 UNK         0.0000 
     14 C14        -0.3581    1.2080    0.0000 C.ar      1 UNK         0.0000 
     15 N15        -1.6190    0.9172    0.0000 N.2       1 UNK         0.0000 
     16 N16        -1.7601   -0.3682    0.0000 N.pl3     1 UNK         0.0000 
     17 C17        -0.5540   -0.8779    0.0000 C.ar      1 UNK         0.0000 
     18 C18        -0.2850   -2.1599    0.0000 C.3       1 UNK         0.0000 
     19 C19        -2.8724   -1.0201    0.0000 C.3       1 UNK         0.0000 
     20 C20        -4.0041   -0.3744    0.0000 C.3       1 UNK         0.0000 
     21 N21        -5.1190   -1.0219    0.0000 N.4       1 UNK         0.0000 
     22 C22        -6.2505   -0.3950    0.0000 C.3       1 UNK         0.0000 
     23 C23        -7.3791   -1.0300    0.0000 C.3       1 UNK         0.0000 
     24 C24        -7.3549   -2.3406    0.0000 C.3       1 UNK         0.0000 
     25 C25        -6.2435   -3.0026    0.0000 C.3       1 UNK         0.0000 
     26 C26        -5.1351   -2.3328    0.0000 C.3       1 UNK         0.0000 
@<TRIPOS>BOND
     1    1    2 1    
     2    2    6 1    
     3    2    3 2    
     4    3    4 1    
     5    4    5 1    
     6    5    6 2    
     7    5    7 1    
     8    7   11 1    
     9    7    8 1    
    10    8    9 1    
    11    9   10 1    
    12   10   11 1    
    13   11   12 1    
    14   12   13 1    
    15   13   17 ar   
    16   13   14 ar   
    17   14   15 ar   
    18   15   16 ar   
    19   16   17 ar   
    20   16   19 1    
    21   17   18 1    
    22   19   20 1    
    23   20   21 1    
    24   21   26 1    
    25   21   22 1    
    26   22   23 1    
    27   23   24 1    
    28   24   25 1    
    29   25   26 1    
@<TRIPOS>SUBSTRUCTURE
     1 UNK         1 GROUP             0       ****    0 ROOT    
