@<TRIPOS>MOLECULE
ZINC91063731
23   25    1
SMALL
USER_CHARGES


@<TRIPOS>ATOM
      1 C1          2.7926    0.8421    0.0000 C.3       1 UNK         0.0000 
      2 C2          1.6684    1.4935    0.0000 C.3       1 UNK         0.0000 
      3 C3          1.6640    2.7809    0.0000 C.3       1 UNK         0.0000 
      4 O4          0.5671    3.4619    0.0000 O.3       1 UNK         0.0000 
      5 C5          0.5318    4.7524    0.0000 C.3       1 UNK         0.0000 
      6 C6          1.6858    5.4175    0.0000 C.3       1 UNK         0.0000 
      7 N7          2.7887    4.7376    0.0000 N.3       1 UNK         0.0000 
      8 C8          2.8207    3.4426    0.0000 C.3       1 UNK         0.0000 
      9 C9          3.9271    5.3913    0.0000 C.3       1 UNK         0.0000 
     10 N10         0.5471    0.8466    0.0000 N.4       1 UNK         0.0000 
     11 C11         0.5508   -0.4515    0.0000 C.3       1 UNK         0.0000 
     12 C12        -0.5833   -1.1021    0.0000 C.ar      1 UNK         0.0000 
     13 C13        -1.7568   -0.5586    0.0000 C.ar      1 UNK         0.0000 
     14 N14        -2.6268   -1.5330    0.0000 N.pl3     1 UNK         0.0000 
     15 N15        -1.9977   -2.6384    0.0000 N.2       1 UNK         0.0000 
     16 C16        -0.7148   -2.3879    0.0000 C.ar      1 UNK         0.0000 
     17 C17         0.2373   -3.2482    0.0000 C.ar      1 UNK         0.0000 
     18 C18         1.4735   -2.8669    0.0000 C.ar      1 UNK         0.0000 
     19 C19         2.4477   -3.7200    0.0000 C.ar      1 UNK         0.0000 
     20 C20         2.1547   -4.9977    0.0000 C.ar      1 UNK         0.0000 
     21 C21         0.9313   -5.4175    0.0000 C.ar      1 UNK         0.0000 
     22 C22        -0.0159   -4.5343    0.0000 C.ar      1 UNK         0.0000 
     23 C23        -3.9271   -1.3747    0.0000 C.3       1 UNK         0.0000 
@<TRIPOS>BOND
     1    1    2 1    
     2    2    3 1    
     3    2   10 1    
     4    3    8 1    
     5    3    4 1    
     6    4    5 1    
     7    5    6 1    
     8    6    7 1    
     9    7    8 1    
    10    7    9 1    
    11   10   11 1    
    12   11   12 1    
    13   12   16 ar   
    14   12   13 ar   
    15   13   14 ar   
    16   14   15 ar   
    17   14   23 1    
    18   15   16 ar   
    19   16   17 1    
    20   17   22 ar   
    21   17   18 ar   
    22   18   19 ar   
    23   19   20 ar   
    24   20   21 ar   
    25   21   22 ar   
@<TRIPOS>SUBSTRUCTURE
     1 UNK         1 GROUP             0       ****    0 ROOT    
