@<TRIPOS>MOLECULE
ZINC76518600
26   28    1
SMALL
USER_CHARGES


@<TRIPOS>ATOM
      1 O1         -0.0005    0.6500    0.0000 O.2       1 UNK         0.0000 
      2 C2          0.0005   -0.6500    0.0000 C.2       1 UNK         0.0000 
      3 N3          1.1269   -1.2990    0.0000 N.am      1 UNK         0.0000 
      4 C4          2.2522   -0.6482    0.0000 C.ar      1 UNK         0.0000 
      5 C5          2.2511    0.6518    0.0000 C.ar      1 UNK         0.0000 
      6 C6          3.3764    1.3029    0.0000 C.ar      1 UNK         0.0000 
      7 C7          4.5027    0.6536    0.0000 C.ar      1 UNK         0.0000 
      8 C8          4.5038   -0.6464    0.0000 C.ar      1 UNK         0.0000 
      9 C9          3.3785   -1.2974    0.0000 C.ar      1 UNK         0.0000 
     10 F10         5.6301   -1.2956    0.0000 F         1 UNK         0.0000 
     11 N11         5.6280    1.3047    0.0000 N.pl3     1 UNK         0.0000 
     12 C12         5.6270    2.6045    0.0000 C.3       1 UNK         0.0000 
     13 C13         6.7523    3.2555    0.0000 C.3       1 UNK         0.0000 
     14 O14         7.8786    2.6063    0.0000 O.3       1 UNK         0.0000 
     15 C15         7.8797    1.3063    0.0000 C.3       1 UNK         0.0000 
     16 C16         6.7544    0.6555    0.0000 C.3       1 UNK         0.0000 
     17 N17        -1.1248   -1.3008    0.0000 N.am      1 UNK         0.0000 
     18 C18        -2.2511   -0.6518    0.0000 C.3       1 UNK         0.0000 
     19 C19        -3.3764   -1.3026    0.0000 C.3       1 UNK         0.0000 
     20 O20        -4.5027   -0.6536    0.0000 O.3       1 UNK         0.0000 
     21 C21        -5.6280   -1.3044    0.0000 C.ar      1 UNK         0.0000 
     22 C22        -5.6270   -2.6045    0.0000 C.ar      1 UNK         0.0000 
     23 C23        -6.7523   -3.2555    0.0000 C.ar      1 UNK         0.0000 
     24 C24        -7.8786   -2.6063    0.0000 C.ar      1 UNK         0.0000 
     25 C25        -7.8797   -1.3063    0.0000 C.ar      1 UNK         0.0000 
     26 C26        -6.7544   -0.6552    0.0000 C.ar      1 UNK         0.0000 
@<TRIPOS>BOND
     1    1    2 2    
     2    2    3 am   BACKBONE|DICT|INTERRES
     3    2   17 am   BACKBONE|DICT|INTERRES
     4    3    4 1    
     5    4    9 ar   
     6    4    5 ar   
     7    5    6 ar   
     8    6    7 ar   
     9    7    8 ar   
    10    7   11 1    
    11    8    9 ar   
    12    8   10 1    
    13   11   16 1    
    14   11   12 1    
    15   12   13 1    
    16   13   14 1    
    17   14   15 1    
    18   15   16 1    
    19   17   18 1    
    20   18   19 1    
    21   19   20 1    
    22   20   21 1    
    23   21   26 ar   
    24   21   22 ar   
    25   22   23 ar   
    26   23   24 ar   
    27   24   25 ar   
    28   25   26 ar   
@<TRIPOS>SUBSTRUCTURE
     1 UNK         1 GROUP             0       ****    0 ROOT    
