@<TRIPOS>MOLECULE
ZINC06773163
22   23    1
SMALL
USER_CHARGES


@<TRIPOS>ATOM
      1 C1          5.8662   -0.7254    0.0000 C.3       1 UNK         0.0000 
      2 C2          4.7391   -0.0777    0.0000 C.3       1 UNK         0.0000 
      3 N3          3.6146   -0.7298    0.0000 N.am      1 UNK         0.0000 
      4 C4          2.4875   -0.0822    0.0000 C.2       1 UNK         0.0000 
      5 O5          2.4849    1.2179    0.0000 O.2       1 UNK         0.0000 
      6 C6          1.3627   -0.7345    0.0000 C.ar      1 UNK         0.0000 
      7 C7          1.2298   -2.0275    0.0000 C.ar      1 UNK         0.0000 
      8 N8         -0.0419   -2.3003    0.0000 N.2       1 UNK         0.0000 
      9 N9         -0.6932   -1.1757    0.0000 N.pl3     1 UNK         0.0000 
     10 C10         0.1742   -0.2075    0.0000 C.ar      1 UNK         0.0000 
     11 C11        -0.0985    1.0632    0.0000 C.3       1 UNK         0.0000 
     12 F12         1.1726    1.3359    0.0000 F         1 UNK         0.0000 
     13 F13         0.3008    2.3003    0.0000 F         1 UNK         0.0000 
     14 F14        -1.3356    1.4623    0.0000 F         1 UNK         0.0000 
     15 C15        -1.9869   -1.0421    0.0000 C.ar      1 UNK         0.0000 
     16 C16        -2.7490   -2.0954    0.0000 C.ar      1 UNK         0.0000 
     17 C17        -4.0420   -1.9620    0.0000 C.ar      1 UNK         0.0000 
     18 C18        -4.5729   -0.7753    0.0000 C.ar      1 UNK         0.0000 
     19 C19        -3.8109    0.2779    0.0000 C.ar      1 UNK         0.0000 
     20 C20        -2.5179    0.1443    0.0000 C.ar      1 UNK         0.0000 
     21 C21        -5.8662   -0.6419    0.0000 C.3       1 UNK         0.0000 
     22 C22         4.7365    1.2223    0.0000 C.3       1 UNK         0.0000 
@<TRIPOS>BOND
     1    1    2 1    
     2    2    3 1    
     3    2   22 1    
     4    3    4 am   BACKBONE|DICT|INTERRES
     5    4    5 2    
     6    4    6 1    
     7    6   10 ar   
     8    6    7 ar   
     9    7    8 ar   
    10    8    9 ar   
    11    9   10 ar   
    12    9   15 1    
    13   10   11 1    
    14   11   12 1    
    15   11   13 1    
    16   11   14 1    
    17   15   20 ar   
    18   15   16 ar   
    19   16   17 ar   
    20   17   18 ar   
    21   18   19 ar   
    22   18   21 1    
    23   19   20 ar   
@<TRIPOS>SUBSTRUCTURE
     1 UNK         1 GROUP             0       ****    0 ROOT    
