@<TRIPOS>MOLECULE
ZINC79167484
27   29    1
SMALL
USER_CHARGES


@<TRIPOS>ATOM
      1 C1          5.0539    7.1589    0.0000 C.3       1 UNK         0.0000 
      2 N2          3.9294    6.5068    0.0000 N.3       1 UNK         0.0000 
      3 C3          3.9320    5.2068    0.0000 C.3       1 UNK         0.0000 
      4 C4          2.8074    4.5544    0.0000 C.3       1 UNK         0.0000 
      5 N5          2.8100    3.2546    0.0000 N.4       1 UNK         0.0000 
      6 C6          1.6855    2.6023    0.0000 C.3       1 UNK         0.0000 
      7 C7          1.6881    1.3022    0.0000 C.3       1 UNK         0.0000 
      8 C8          2.8152    0.6546    0.0000 C.3       1 UNK         0.0000 
      9 C9          3.9398    1.3067    0.0000 C.3       1 UNK         0.0000 
     10 C10         3.9372    2.6067    0.0000 C.3       1 UNK         0.0000 
     11 N11         2.8178   -0.6455    0.0000 N.am      1 UNK         0.0000 
     12 C12         1.6933   -1.2978    0.0000 C.2       1 UNK         0.0000 
     13 O13         0.5662   -0.6499    0.0000 O.2       1 UNK         0.0000 
     14 N14         1.6959   -2.5979    0.0000 N.am      1 UNK         0.0000 
     15 C15         0.5714   -3.2500    0.0000 C.3       1 UNK         0.0000 
     16 C16        -0.5558   -2.6023    0.0000 C.3       1 UNK         0.0000 
     17 C17        -1.6803   -3.2544    0.0000 C.3       1 UNK         0.0000 
     18 N18        -1.6777   -4.5544    0.0000 N.pl3     1 UNK         0.0000 
     19 C19        -0.5506   -5.2021    0.0000 C.3       1 UNK         0.0000 
     20 C20         0.5742   -4.5500    0.0000 C.3       1 UNK         0.0000 
     21 C21        -2.8022   -5.2068    0.0000 C.ar      1 UNK         0.0000 
     22 C22        -3.9294   -4.5591    0.0000 C.ar      1 UNK         0.0000 
     23 C23        -5.0539   -5.2112    0.0000 C.ar      1 UNK         0.0000 
     24 C24        -5.0513   -6.5112    0.0000 C.ar      1 UNK         0.0000 
     25 C25        -3.9242   -7.1589    0.0000 C.ar      1 UNK         0.0000 
     26 N26        -2.7996   -6.5068    0.0000 N.ar      1 UNK         0.0000 
     27 C27         2.8022    7.1545    0.0000 C.3       1 UNK         0.0000 
@<TRIPOS>BOND
     1    1    2 1    
     2    2    3 1    
     3    2   27 1    
     4    3    4 1    
     5    4    5 1    
     6    5   10 1    
     7    5    6 1    
     8    6    7 1    
     9    7    8 1    
    10    8    9 1    
    11    8   11 1    
    12    9   10 1    
    13   11   12 am   BACKBONE|DICT|INTERRES
    14   12   13 2    
    15   12   14 am   BACKBONE|DICT|INTERRES
    16   14   15 1    
    17   15   20 1    
    18   15   16 1    
    19   16   17 1    
    20   17   18 1    
    21   18   19 1    
    22   18   21 1    
    23   19   20 1    
    24   21   26 ar   
    25   21   22 ar   
    26   22   23 ar   
    27   23   24 ar   
    28   24   25 ar   
    29   25   26 ar   
@<TRIPOS>SUBSTRUCTURE
     1 UNK         1 GROUP             0       ****    0 ROOT    
