@<TRIPOS>MOLECULE
ZINC59292251
25   27    1
SMALL
USER_CHARGES


@<TRIPOS>ATOM
      1 C1          4.6883   -3.0773    0.0000 C.3       1 UNK         0.0000 
      2 O2          3.5644   -2.4249    0.0000 O.3       1 UNK         0.0000 
      3 C3          3.5667   -1.1386    0.0000 C.ar      1 UNK         0.0000 
      4 C4          4.6747   -0.4745    0.0000 C.ar      1 UNK         0.0000 
      5 C5          4.6979    0.8378    0.0000 C.ar      1 UNK         0.0000 
      6 O6          5.8134    1.4783    0.0000 O.3       1 UNK         0.0000 
      7 C7          6.9373    0.8251    0.0000 C.3       1 UNK         0.0000 
      8 C8          3.5678    1.4705    0.0000 C.ar      1 UNK         0.0000 
      9 C9          2.4384    0.8433    0.0000 C.ar      1 UNK         0.0000 
     10 C10         2.4582   -0.4690    0.0000 C.ar      1 UNK         0.0000 
     11 C11         1.3226    1.4840    0.0000 C.2       1 UNK         0.0000 
     12 O12         1.3184    2.7838    0.0000 O.2       1 UNK         0.0000 
     13 N13         0.1974    0.8285    0.0000 N.am      1 UNK         0.0000 
     14 C14        -0.9317    1.4728    0.0000 C.3       1 UNK         0.0000 
     15 C15        -2.0584    0.8191    0.0000 C.3       1 UNK         0.0000 
     16 C16        -3.1690    1.4723    0.0000 C.ar      1 UNK         0.0000 
     17 C17        -3.3201    2.7766    0.0000 C.ar      1 UNK         0.0000 
     18 N18        -4.5721    3.0773    0.0000 N.pl3     1 UNK         0.0000 
     19 C19        -5.2190    1.9337    0.0000 C.ar      1 UNK         0.0000 
     20 C20        -4.3849    0.9504    0.0000 C.ar      1 UNK         0.0000 
     21 C21        -4.7600   -0.2871    0.0000 C.ar      1 UNK         0.0000 
     22 C22        -6.0450   -0.5215    0.0000 C.ar      1 UNK         0.0000 
     23 C23        -6.4557   -1.7683    0.0000 C.3       1 UNK         0.0000 
     24 C24        -6.9373    0.4282    0.0000 C.ar      1 UNK         0.0000 
     25 C25        -6.5030    1.6436    0.0000 C.ar      1 UNK         0.0000 
@<TRIPOS>BOND
     1    1    2 1    
     2    2    3 1    
     3    3   10 ar   
     4    3    4 ar   
     5    4    5 ar   
     6    5    6 1    
     7    5    8 ar   
     8    6    7 1    
     9    8    9 ar   
    10    9   10 ar   
    11    9   11 1    
    12   11   12 2    
    13   11   13 am   BACKBONE|DICT|INTERRES
    14   13   14 1    
    15   14   15 1    
    16   15   16 1    
    17   16   20 ar   
    18   16   17 ar   
    19   17   18 ar   
    20   18   19 ar   
    21   19   25 ar   
    22   19   20 ar   
    23   20   21 ar   
    24   21   22 ar   
    25   22   23 1    
    26   22   24 ar   
    27   24   25 ar   
@<TRIPOS>SUBSTRUCTURE
     1 UNK         1 GROUP             0       ****    0 ROOT    
