@<TRIPOS>MOLECULE
ZINC13686577
29   31    1
SMALL
USER_CHARGES


@<TRIPOS>ATOM
      1 O1          0.2772    1.5383    0.0000 O.2       1 UNK         0.0000 
      2 C2          0.2761    0.2383    0.0000 C.2       1 UNK         0.0000 
      3 C3          1.4014   -0.4128    0.0000 C.ar      1 UNK         0.0000 
      4 C4          1.4004   -1.7128    0.0000 C.ar      1 UNK         0.0000 
      5 C5          2.5257   -2.3636    0.0000 C.ar      1 UNK         0.0000 
      6 C6          3.6520   -1.7146    0.0000 C.ar      1 UNK         0.0000 
      7 C7          3.6531   -0.4146    0.0000 C.ar      1 UNK         0.0000 
      8 C8          2.5278    0.2365    0.0000 C.ar      1 UNK         0.0000 
      9 S9          4.8897   -0.0139    0.0000 S.3       1 UNK         0.0000 
     10 C10         5.6530   -1.0662    0.0000 C.2       1 UNK         0.0000 
     11 N11         4.8881   -2.1171    0.0000 N.2       1 UNK         0.0000 
     12 N12         6.9531   -1.0672    0.0000 N.2       1 UNK         0.0000 
     13 S13         7.6020   -2.1935    0.0000 S.o2      1 UNK         0.0000 
     14 O14         6.4757   -2.8425    0.0000 O.2       1 UNK         0.0000 
     15 O15         8.7284   -1.5443    0.0000 O.2       1 UNK         0.0000 
     16 C16         8.2513   -3.3199    0.0000 C.3       1 UNK         0.0000 
     17 N17        -0.8502   -0.4109    0.0000 N.am      1 UNK         0.0000 
     18 C18        -1.9755    0.2401    0.0000 C.3       1 UNK         0.0000 
     19 C19        -3.1019   -0.4091    0.0000 C.3       1 UNK         0.0000 
     20 C20        -4.2272    0.2417    0.0000 C.ar      1 UNK         0.0000 
     21 C21        -4.2261    1.5417    0.0000 C.ar      1 UNK         0.0000 
     22 C22        -5.3514    2.1928    0.0000 C.ar      1 UNK         0.0000 
     23 C23        -6.4778    1.5435    0.0000 C.ar      1 UNK         0.0000 
     24 C24        -6.4788    0.2435    0.0000 C.ar      1 UNK         0.0000 
     25 C25        -5.3535   -0.4073    0.0000 C.ar      1 UNK         0.0000 
     26 S26        -7.6031    2.1946    0.0000 S.o2      1 UNK         0.0000 
     27 O27        -6.9523    3.3199    0.0000 O.2       1 UNK         0.0000 
     28 O28        -8.2541    1.0693    0.0000 O.2       1 UNK         0.0000 
     29 N29        -8.7284    2.8454    0.0000 N.2       1 UNK         0.0000 
@<TRIPOS>BOND
     1    1    2 2    
     2    2    3 1    
     3    2   17 am   BACKBONE|DICT|INTERRES
     4    3    8 ar   
     5    3    4 ar   
     6    4    5 ar   
     7    5    6 ar   
     8    6   11 1    
     9    6    7 ar   
    10    7    8 ar   
    11    7    9 1    
    12    9   10 1    
    13   10   11 2    
    14   10   12 1    
    15   12   13 1    
    16   13   14 2    
    17   13   15 2    
    18   13   16 1    
    19   17   18 1    
    20   18   19 1    
    21   19   20 1    
    22   20   25 ar   
    23   20   21 ar   
    24   21   22 ar   
    25   22   23 ar   
    26   23   24 ar   
    27   23   26 1    
    28   24   25 ar   
    29   26   27 2    
    30   26   28 2    
    31   26   29 1    
@<TRIPOS>SUBSTRUCTURE
     1 UNK         1 GROUP             0       ****    0 ROOT    
