@<TRIPOS>MOLECULE
ZINC51618875
21   23    1
SMALL
USER_CHARGES


@<TRIPOS>ATOM
      1 O1          1.1644    1.5986    0.0000 O.3       1 UNK         0.0000 
      2 C2          2.2897    0.9479    0.0000 C.3       1 UNK         0.0000 
      3 C3          3.4161    1.5968    0.0000 C.3       1 UNK         0.0000 
      4 N4          3.4171    2.8969    0.0000 N.pl3     1 UNK         0.0000 
      5 C5          4.4694    3.6602    0.0000 C.ar      1 UNK         0.0000 
      6 C6          4.0690    4.8968    0.0000 C.ar      1 UNK         0.0000 
      7 C7          2.7687    4.8979    0.0000 C.ar      1 UNK         0.0000 
      8 N8          2.3662    3.6621    0.0000 N.2       1 UNK         0.0000 
      9 C9          2.2887   -0.3522    0.0000 C.3       1 UNK         0.0000 
     10 N10         1.1624   -1.0014    0.0000 N.4       1 UNK         0.0000 
     11 C11         0.0371   -0.3504    0.0000 C.3       1 UNK         0.0000 
     12 C12        -1.0893   -0.9996    0.0000 C.3       1 UNK         0.0000 
     13 N13        -1.0903   -2.2996    0.0000 N.pl3     1 UNK         0.0000 
     14 C14         0.0350   -2.9507    0.0000 C.3       1 UNK         0.0000 
     15 C15         1.1613   -2.3014    0.0000 C.3       1 UNK         0.0000 
     16 C16        -2.2167   -2.9489    0.0000 C.ar      1 UNK         0.0000 
     17 C17        -3.3420   -2.2978    0.0000 C.ar      1 UNK         0.0000 
     18 C18        -4.4683   -2.9470    0.0000 C.ar      1 UNK         0.0000 
     19 C19        -4.4694   -4.2468    0.0000 C.ar      1 UNK         0.0000 
     20 C20        -3.3441   -4.8979    0.0000 C.ar      1 UNK         0.0000 
     21 N21        -2.2177   -4.2486    0.0000 N.pl3     1 UNK         0.0000 
@<TRIPOS>BOND
     1    1    2 1    
     2    2    3 1    
     3    2    9 1    
     4    3    4 1    
     5    4    8 ar   
     6    4    5 ar   
     7    5    6 ar   
     8    6    7 ar   
     9    7    8 ar   
    10    9   10 1    
    11   10   15 1    
    12   10   11 1    
    13   11   12 1    
    14   12   13 1    
    15   13   14 1    
    16   13   16 1    
    17   14   15 1    
    18   16   21 ar   
    19   16   17 ar   
    20   17   18 ar   
    21   18   19 ar   
    22   19   20 ar   
    23   20   21 ar   
@<TRIPOS>SUBSTRUCTURE
     1 UNK         1 GROUP             0       ****    0 ROOT    
