@<TRIPOS>MOLECULE
ZINC91209266
18   18    1
SMALL
USER_CHARGES


@<TRIPOS>ATOM
      1 C1         -6.4179    3.3993    0.0000 C.3       1 UNK         0.0000 
      2 O2         -5.2906    4.0467    0.0000 O.3       1 UNK         0.0000 
      3 C3         -4.1663    3.3944    0.0000 C.3       1 UNK         0.0000 
      4 C4         -3.0390    4.0420    0.0000 C.3       1 UNK         0.0000 
      5 C5         -1.9148    3.3895    0.0000 C.3       1 UNK         0.0000 
      6 O6         -0.7874    4.0369    0.0000 O.3       1 UNK         0.0000 
      7 C7          0.3373    3.3845    0.0000 C.3       1 UNK         0.0000 
      8 C8          1.5937    3.7186    0.0000 C.3       1 UNK         0.0000 
      9 N9          1.9278    2.4620    0.0000 N.am      1 UNK         0.0000 
     10 C10         0.6712    2.1282    0.0000 C.3       1 UNK         0.0000 
     11 C11         3.0522    1.8097    0.0000 C.2       1 UNK         0.0000 
     12 O12         4.1793    2.4576    0.0000 O.2       1 UNK         0.0000 
     13 N13         3.0496    0.5100    0.0000 N.am      1 UNK         0.0000 
     14 C14         4.1741   -0.1423    0.0000 C.3       1 UNK         0.0000 
     15 C15         4.1715   -1.4423    0.0000 C.3       1 UNK         0.0000 
     16 O16         5.2960   -2.0944    0.0000 O.3       1 UNK         0.0000 
     17 C17         5.2934   -3.3944    0.0000 C.3       1 UNK         0.0000 
     18 C18         6.4179   -4.0467    0.0000 C.3       1 UNK         0.0000 
@<TRIPOS>BOND
     1    1    2 1    
     2    2    3 1    
     3    3    4 1    
     4    4    5 1    
     5    5    6 1    
     6    6    7 1    
     7    7   10 1    
     8    7    8 1    
     9    8    9 1    
    10    9   10 1    
    11    9   11 am   BACKBONE|DICT|INTERRES
    12   11   12 2    
    13   11   13 am   BACKBONE|DICT|INTERRES
    14   13   14 1    
    15   14   15 1    
    16   15   16 1    
    17   16   17 1    
    18   17   18 1    
@<TRIPOS>SUBSTRUCTURE
     1 UNK         1 GROUP             0       ****    0 ROOT    
