@<TRIPOS>MOLECULE
ZINC90463175
26   29    1
SMALL
USER_CHARGES


@<TRIPOS>ATOM
      1 O1          1.2068    1.3492    0.0000 O.2       1 UNK         0.0000 
      2 C2          1.2094    0.0504    0.0000 C.2       1 UNK         0.0000 
      3 C3          2.3326   -0.5961    0.0000 C.3       1 UNK         0.0000 
      4 C4          3.4509    0.0387    0.0000 C.ar      1 UNK         0.0000 
      5 C5          4.6460   -0.4780    0.0000 C.ar      1 UNK         0.0000 
      6 C6          4.9136   -1.7625    0.0000 C.3       1 UNK         0.0000 
      7 N7          5.5323    0.4712    0.0000 N.pl3     1 UNK         0.0000 
      8 C8          4.8736    1.5947    0.0000 C.ar      1 UNK         0.0000 
      9 C9          3.6008    1.3513    0.0000 C.ar      1 UNK         0.0000 
     10 C10         2.7155    2.3098    0.0000 C.ar      1 UNK         0.0000 
     11 C11         3.1376    3.5340    0.0000 C.ar      1 UNK         0.0000 
     12 F12         2.2625    4.5117    0.0000 F         1 UNK         0.0000 
     13 C13         4.4045    3.8190    0.0000 C.ar      1 UNK         0.0000 
     14 C14         5.2614    2.8321    0.0000 C.ar      1 UNK         0.0000 
     15 N15         0.0883   -0.6019    0.0000 N.am      1 UNK         0.0000 
     16 C16        -1.0375    0.0416    0.0000 C.3       1 UNK         0.0000 
     17 C17        -2.1459   -0.6065    0.0000 C.3       1 UNK         0.0000 
     18 O18        -3.2914    0.0270    0.0000 O.3       1 UNK         0.0000 
     19 C19        -4.4201   -0.6084    0.0000 C.3       1 UNK         0.0000 
     20 C20        -4.3946   -1.9025    0.0000 C.3       1 UNK         0.0000 
     21 N21        -3.2698   -2.5656    0.0000 N.3       1 UNK         0.0000 
     22 C22        -2.1573   -1.8986    0.0000 C.3       1 UNK         0.0000 
     23 C23        -3.2758   -3.8473    0.0000 C.3       1 UNK         0.0000 
     24 C24        -4.4063   -4.5117    0.0000 C.3       1 UNK         0.0000 
     25 C25        -5.5248   -3.8522    0.0000 C.3       1 UNK         0.0000 
     26 C26        -5.5323   -2.5521    0.0000 C.3       1 UNK         0.0000 
@<TRIPOS>BOND
     1    1    2 2    
     2    2    3 1    
     3    2   15 am   BACKBONE|DICT|INTERRES
     4    3    4 1    
     5    4    9 ar   
     6    4    5 ar   
     7    5    6 1    
     8    5    7 ar   
     9    7    8 ar   
    10    8   14 ar   
    11    8    9 ar   
    12    9   10 ar   
    13   10   11 ar   
    14   11   12 1    
    15   11   13 ar   
    16   13   14 ar   
    17   15   16 1    
    18   16   17 1    
    19   17   22 1    
    20   17   18 1    
    21   18   19 1    
    22   19   20 1    
    23   20   26 1    
    24   20   21 1    
    25   21   22 1    
    26   21   23 1    
    27   23   24 1    
    28   24   25 1    
    29   25   26 1    
@<TRIPOS>SUBSTRUCTURE
     1 UNK         1 GROUP             0       ****    0 ROOT    
