@<TRIPOS>MOLECULE
ZINC22687722
21   22    1
SMALL
USER_CHARGES


@<TRIPOS>ATOM
      1 Cl1        -5.0665    1.3189    0.0000 Cl        1 UNK         0.0000 
      2 C2         -3.9402    0.6697    0.0000 C.ar      1 UNK         0.0000 
      3 C3         -3.9391   -0.6304    0.0000 C.ar      1 UNK         0.0000 
      4 C4         -2.8128   -1.2794    0.0000 C.ar      1 UNK         0.0000 
      5 C5         -1.6875   -0.6286    0.0000 C.ar      1 UNK         0.0000 
      6 C6         -1.6885    0.6715    0.0000 C.ar      1 UNK         0.0000 
      7 C7         -2.8149    1.3207    0.0000 C.ar      1 UNK         0.0000 
      8 C8         -0.5632    1.3225    0.0000 C.2       1 UNK         0.0000 
      9 O9         -0.5642    2.6226    0.0000 O.2       1 UNK         0.0000 
     10 N10         0.5632    0.6733    0.0000 N.am      1 UNK         0.0000 
     11 C11         1.6885    1.3241    0.0000 C.3       1 UNK         0.0000 
     12 C12         2.8149    0.6751    0.0000 C.3       1 UNK         0.0000 
     13 C13         2.8159   -0.6249    0.0000 C.2       1 UNK         0.0000 
     14 C14         3.8681   -1.3883    0.0000 C         1 UNK         0.0000 
     15 C15         3.4675   -2.6249    0.0000 C         1 UNK         0.0000 
     16 C16         2.1674   -2.6260    0.0000 C         1 UNK         0.0000 
     17 S17         1.7649   -1.3899    0.0000 S.3       1 UNK         0.0000 
     18 N18         3.9402    1.3259    0.0000 N.4       1 UNK         0.0000 
     19 C19         5.0665    0.6769    0.0000 C.3       1 UNK         0.0000 
     20 C20         3.9391    2.6260    0.0000 C.3       1 UNK         0.0000 
     21 Cl21       -0.5611   -1.2776    0.0000 Cl        1 UNK         0.0000 
@<TRIPOS>BOND
     1    1    2 1    
     2    2    7 ar   
     3    2    3 ar   
     4    3    4 ar   
     5    4    5 ar   
     6    5    6 ar   
     7    5   21 1    
     8    6    7 ar   
     9    6    8 1    
    10    8    9 2    
    11    8   10 am   BACKBONE|DICT|INTERRES
    12   10   11 1    
    13   11   12 1    
    14   12   13 1    
    15   12   18 1    
    16   13   17 1    
    17   13   14 2    
    18   14   15 1    
    19   15   16 2    
    20   16   17 1    
    21   18   19 1    
    22   18   20 1    
@<TRIPOS>SUBSTRUCTURE
     1 UNK         1 GROUP             0       ****    0 ROOT    
