@<TRIPOS>MOLECULE
ZINC48346030
24   27    1
SMALL
USER_CHARGES


@<TRIPOS>ATOM
      1 C1          0.4385   -2.6027    0.0000 C.3       1 UNK         0.0000 
      2 N2          0.4374   -1.3027    0.0000 N.pl3     1 UNK         0.0000 
      3 C3         -0.6889   -0.6535    0.0000 C.ar      1 UNK         0.0000 
      4 C4         -0.6899    0.6465    0.0000 C.ar      1 UNK         0.0000 
      5 C5         -1.8162    1.2954    0.0000 C.ar      1 UNK         0.0000 
      6 C6         -2.9415    0.6447    0.0000 C.ar      1 UNK         0.0000 
      7 N7         -2.9405   -0.6553    0.0000 N.pl3     1 UNK         0.0000 
      8 N8         -1.8141   -1.3045    0.0000 N.2       1 UNK         0.0000 
      9 C9         -4.1765   -1.0581    0.0000 C.ar      1 UNK         0.0000 
     10 N10        -4.9417   -0.0069    0.0000 N.2       1 UNK         0.0000 
     11 N11        -4.1780    1.0453    0.0000 N.2       1 UNK         0.0000 
     12 C12         1.5627   -0.6517    0.0000 C.3       1 UNK         0.0000 
     13 C13         2.6890   -1.3009    0.0000 C.ar      1 UNK         0.0000 
     14 C14         2.6901   -2.6009    0.0000 C.ar      1 UNK         0.0000 
     15 C15         3.8164   -3.2501    0.0000 C.ar      1 UNK         0.0000 
     16 C16         4.9417   -2.5991    0.0000 C.ar      1 UNK         0.0000 
     17 C17         4.9406   -1.2991    0.0000 C.ar      1 UNK         0.0000 
     18 C18         3.8143   -0.6499    0.0000 C.ar      1 UNK         0.0000 
     19 N19         3.8133    0.6499    0.0000 N.pl3     1 UNK         0.0000 
     20 C20         2.6870    1.2991    0.0000 C.3       1 UNK         0.0000 
     21 C21         2.6859    2.5991    0.0000 C.3       1 UNK         0.0000 
     22 O22         3.8112    3.2501    0.0000 O.3       1 UNK         0.0000 
     23 C23         4.9375    2.6009    0.0000 C.3       1 UNK         0.0000 
     24 C24         4.9385    1.3009    0.0000 C.3       1 UNK         0.0000 
@<TRIPOS>BOND
     1    1    2 1    
     2    2    3 1    
     3    2   12 1    
     4    3    8 ar   
     5    3    4 ar   
     6    4    5 ar   
     7    5    6 ar   
     8    6   11 ar   
     9    6    7 ar   
    10    7    8 ar   
    11    7    9 ar   
    12    9   10 ar   
    13   10   11 ar   
    14   12   13 1    
    15   13   18 ar   
    16   13   14 ar   
    17   14   15 ar   
    18   15   16 ar   
    19   16   17 ar   
    20   17   18 ar   
    21   18   19 1    
    22   19   24 1    
    23   19   20 1    
    24   20   21 1    
    25   21   22 1    
    26   22   23 1    
    27   23   24 1    
@<TRIPOS>SUBSTRUCTURE
     1 UNK         1 GROUP             0       ****    0 ROOT    
