@<TRIPOS>MOLECULE
ZINC78437095
19   19    1
SMALL
USER_CHARGES


@<TRIPOS>ATOM
      1 N1          4.5000    2.6001    0.0000 N.1       1 UNK         0.0000 
      2 C2          4.5011    1.3001    0.0000 C.1       1 UNK         0.0000 
      3 C3          4.5021    0.0001    0.0000 C.ar      1 UNK         0.0000 
      4 C4          5.6284   -0.6491    0.0000 C.ar      1 UNK         0.0000 
      5 C5          5.6295   -1.9491    0.0000 C.ar      1 UNK         0.0000 
      6 C6          4.5042   -2.6001    0.0000 C.ar      1 UNK         0.0000 
      7 C7          3.3779   -1.9509    0.0000 C.ar      1 UNK         0.0000 
      8 C8          3.3768   -0.6509    0.0000 C.ar      1 UNK         0.0000 
      9 C9          2.2505   -0.0017    0.0000 C.2       1 UNK         0.0000 
     10 O10         2.2495    1.2983    0.0000 O.2       1 UNK         0.0000 
     11 O11         1.1253   -0.6527    0.0000 O.3       1 UNK         0.0000 
     12 C12        -0.0010   -0.0035    0.0000 C.3       1 UNK         0.0000 
     13 C13        -1.1263   -0.6545    0.0000 C.3       1 UNK         0.0000 
     14 O14        -2.2526   -0.0053    0.0000 O.3       1 UNK         0.0000 
     15 C15        -3.3779   -0.6564    0.0000 C.3       1 UNK         0.0000 
     16 C16        -4.5042   -0.0072    0.0000 C.3       1 UNK         0.0000 
     17 F17        -3.8550    1.1192    0.0000 F         1 UNK         0.0000 
     18 F18        -5.1550    1.1181    0.0000 F         1 UNK         0.0000 
     19 F19        -5.6295   -0.6579    0.0000 F         1 UNK         0.0000 
@<TRIPOS>BOND
     1    1    2 3    
     2    2    3 1    
     3    3    8 ar   
     4    3    4 ar   
     5    4    5 ar   
     6    5    6 ar   
     7    6    7 ar   
     8    7    8 ar   
     9    8    9 1    
    10    9   10 2    
    11    9   11 1    
    12   11   12 1    
    13   12   13 1    
    14   13   14 1    
    15   14   15 1    
    16   15   16 1    
    17   16   17 1    
    18   16   18 1    
    19   16   19 1    
@<TRIPOS>SUBSTRUCTURE
     1 UNK         1 GROUP             0       ****    0 ROOT    
