@<TRIPOS>MOLECULE
ZINC00996564
26   28    1
SMALL
USER_CHARGES


@<TRIPOS>ATOM
      1 F1          1.0604    4.4417    0.0000 F         1 UNK         0.0000 
      2 C2          1.7115    3.3165    0.0000 C.ar      1 UNK         0.0000 
      3 C3          3.0115    3.3175    0.0000 C.ar      1 UNK         0.0000 
      4 C4          3.6623    2.1922    0.0000 C.ar      1 UNK         0.0000 
      5 C5          3.0130    1.0659    0.0000 C.ar      1 UNK         0.0000 
      6 C6          1.7133    1.0648    0.0000 C.ar      1 UNK         0.0000 
      7 C7          1.0622    2.1901    0.0000 C.ar      1 UNK         0.0000 
      8 C8          3.6641   -0.0594    0.0000 C.2       1 UNK         0.0000 
      9 O9          4.9641   -0.0584    0.0000 O.2       1 UNK         0.0000 
     10 N10         3.0149   -1.1857    0.0000 N.am      1 UNK         0.0000 
     11 C11         1.7151   -1.1868    0.0000 C.2       1 UNK         0.0000 
     12 S12         0.9499   -0.1356    0.0000 S.3       1 UNK         0.0000 
     13 C13        -0.2861   -0.5383    0.0000 C.2       1 UNK         0.0000 
     14 C14        -0.2851   -1.8383    0.0000 C.2       1 UNK         0.0000 
     15 C15         0.9517   -2.2390    0.0000 C.2       1 UNK         0.0000 
     16 C16         1.3542   -3.4751    0.0000 C.2       1 UNK         0.0000 
     17 O17         2.6262   -3.7444    0.0000 O.2       1 UNK         0.0000 
     18 N18         0.4850   -4.4417    0.0000 N.am      1 UNK         0.0000 
     19 C19        -1.4104   -2.4891    0.0000 C.3       1 UNK         0.0000 
     20 C20        -2.5367   -1.8402    0.0000 C.3       1 UNK         0.0000 
     21 C21        -2.5378   -0.5402    0.0000 C.3       1 UNK         0.0000 
     22 C22        -1.4125    0.1109    0.0000 C.3       1 UNK         0.0000 
     23 C23        -3.6641    0.1091    0.0000 C.3       1 UNK         0.0000 
     24 C24        -4.3130   -1.0173    0.0000 C.3       1 UNK         0.0000 
     25 C25        -4.9641    0.1080    0.0000 C.3       1 UNK         0.0000 
     26 C26        -3.6651    1.4091    0.0000 C.3       1 UNK         0.0000 
@<TRIPOS>BOND
     1    1    2 1    
     2    2    7 ar   
     3    2    3 ar   
     4    3    4 ar   
     5    4    5 ar   
     6    5    6 ar   
     7    5    8 1    
     8    6    7 ar   
     9    8    9 2    
    10    8   10 am   BACKBONE|DICT|INTERRES
    11   10   11 am   BACKBONE|DICT|INTERRES
    12   11   15 2    
    13   11   12 1    
    14   12   13 1    
    15   13   22 1    
    16   13   14 2    
    17   14   15 1    
    18   14   19 1    
    19   15   16 1    
    20   16   17 2    
    21   16   18 am   BACKBONE|DICT|INTERRES
    22   19   20 1    
    23   20   21 1    
    24   21   22 1    
    25   21   23 1    
    26   23   24 1    
    27   23   25 1    
    28   23   26 1    
@<TRIPOS>SUBSTRUCTURE
     1 UNK         1 GROUP             0       ****    0 ROOT    
