@<TRIPOS>MOLECULE
ZINC00405866
13   13    1
SMALL
USER_CHARGES


@<TRIPOS>ATOM
      1 O1          0.0070    1.9540    0.0000 O.2       1 UNK         0.0000 
      2 C2          0.0023    0.6539    0.0000 C.2       1 UNK         0.0000 
      3 C3          1.1258    0.0000    0.0000 C.3       1 UNK         0.0000 
      4 C4          1.1212   -1.3001    0.0000 C.3       1 UNK         0.0000 
      5 C5          2.2447   -1.9540    0.0000 C.3       1 UNK         0.0000 
      6 C6          3.3729   -1.3081    0.0000 C.3       1 UNK         0.0000 
      7 C7          3.3775   -0.0081    0.0000 C.3       1 UNK         0.0000 
      8 C8          2.2540    0.6459    0.0000 C.3       1 UNK         0.0000 
      9 N9         -1.1258    0.0081    0.0000 N.am      1 UNK         0.0000 
     10 C10        -2.2494    0.6620    0.0000 C.3       1 UNK         0.0000 
     11 C11        -1.5954    1.7855    0.0000 C.3       1 UNK         0.0000 
     12 C12        -2.8955    1.7902    0.0000 C.3       1 UNK         0.0000 
     13 C13        -3.3775    0.0161    0.0000 C.3       1 UNK         0.0000 
@<TRIPOS>BOND
     1    1    2 2    
     2    2    3 1    
     3    2    9 am   BACKBONE|DICT|INTERRES
     4    3    8 1    
     5    3    4 1    
     6    4    5 1    
     7    5    6 1    
     8    6    7 1    
     9    7    8 1    
    10    9   10 1    
    11   10   11 1    
    12   10   12 1    
    13   10   13 1    
@<TRIPOS>SUBSTRUCTURE
     1 UNK         1 GROUP             0       ****    0 ROOT    
