@<TRIPOS>MOLECULE
ZINC67541956
24   26    1
SMALL
USER_CHARGES


@<TRIPOS>ATOM
      1 C1          2.5386   -0.3246    0.0000 C.3       1 UNK         0.0000 
      2 C2          1.4122    0.3246    0.0000 C.3       1 UNK         0.0000 
      3 C3          1.4112    1.6246    0.0000 C.3       1 UNK         0.0000 
      4 C4          2.5365    2.2754    0.0000 C.ar      1 UNK         0.0000 
      5 N5          3.6628    1.6265    0.0000 N.pl3     1 UNK         0.0000 
      6 C6          4.7881    2.2773    0.0000 C.ar      1 UNK         0.0000 
      7 C7          4.7871    3.5773    0.0000 C.ar      1 UNK         0.0000 
      8 C8          3.6607    4.2265    0.0000 C.ar      1 UNK         0.0000 
      9 C9          2.5354    3.5755    0.0000 C.ar      1 UNK         0.0000 
     10 C10         1.4091    4.2247    0.0000 C.3       1 UNK         0.0000 
     11 N11         0.2869   -0.3264    0.0000 N.2       1 UNK         0.0000 
     12 C12         0.2880   -1.6265    0.0000 C.ar      1 UNK         0.0000 
     13 N13         1.4143   -2.2754    0.0000 N.ar      1 UNK         0.0000 
     14 C14         1.4153   -3.5755    0.0000 C.ar      1 UNK         0.0000 
     15 N15         0.2900   -4.2265    0.0000 N.ar      1 UNK         0.0000 
     16 C16        -0.8363   -3.5773    0.0000 C.ar      1 UNK         0.0000 
     17 C17        -0.8373   -2.2773    0.0000 C.ar      1 UNK         0.0000 
     18 C18        -2.0739   -1.8766    0.0000 C.2       1 UNK         0.0000 
     19 C19        -2.4767   -0.6405    0.0000 C.3       1 UNK         0.0000 
     20 C20        -2.8373   -2.9288    0.0000 C.2       1 UNK         0.0000 
     21 S21        -2.0721   -3.9800    0.0000 S.3       1 UNK         0.0000 
     22 C22        -4.1373   -2.9299    0.0000 C.2       1 UNK         0.0000 
     23 O23        -4.7881   -1.8046    0.0000 O.2       1 UNK         0.0000 
     24 O24        -4.7863   -4.0562    0.0000 O.3       1 UNK         0.0000 
@<TRIPOS>BOND
     1    1    2 1    
     2    2    3 1    
     3    2   11 1    
     4    3    4 1    
     5    4    9 ar   
     6    4    5 ar   
     7    5    6 ar   
     8    6    7 ar   
     9    7    8 ar   
    10    8    9 ar   
    11    9   10 1    
    12   11   12 1    
    13   12   17 ar   
    14   12   13 ar   
    15   13   14 ar   
    16   14   15 ar   
    17   15   16 ar   
    18   16   21 1    
    19   16   17 ar   
    20   17   18 1    
    21   18   19 1    
    22   18   20 2    
    23   20   21 1    
    24   20   22 1    
    25   22   23 2    
    26   22   24 1    
@<TRIPOS>SUBSTRUCTURE
     1 UNK         1 GROUP             0       ****    0 ROOT    
