@<TRIPOS>MOLECULE
ZINC94406472
21   23    1
SMALL
USER_CHARGES


@<TRIPOS>ATOM
      1 Cl1        -5.0689    0.9194    0.0000 Cl        1 UNK         0.0000 
      2 C2         -3.9254    0.2815    0.0000 C.ar      1 UNK         0.0000 
      3 C3         -2.8122    0.9278    0.0000 C.ar      1 UNK         0.0000 
      4 C4         -1.6791    0.2859    0.0000 C.ar      1 UNK         0.0000 
      5 C5         -1.6851   -1.0181    0.0000 C.ar      1 UNK         0.0000 
      6 C6         -2.7987   -1.6634    0.0000 C.ar      1 UNK         0.0000 
      7 C7         -3.9298   -1.0210    0.0000 C.ar      1 UNK         0.0000 
      8 S8         -0.5428   -1.6610    0.0000 S.3       1 UNK         0.0000 
      9 C9          0.5805   -1.0116    0.0000 C.3       1 UNK         0.0000 
     10 C10         1.7058   -1.6621    0.0000 C.3       1 UNK         0.0000 
     11 C11         2.8187   -1.0199    0.0000 C.3       1 UNK         0.0000 
     12 C12         3.9490   -1.6501    0.0000 C.3       1 UNK         0.0000 
     13 C13         5.0689   -1.0197    0.0000 C.3       1 UNK         0.0000 
     14 O14         5.0448    0.3012    0.0000 O.3       1 UNK         0.0000 
     15 C15         3.9340    0.9659    0.0000 C.3       1 UNK         0.0000 
     16 C16         2.8343    0.3012    0.0000 C.3       1 UNK         0.0000 
     17 C17         2.8696    1.7174    0.0000 C.3       1 UNK         0.0000 
     18 O18         3.2991    2.9604    0.0000 O.3       1 UNK         0.0000 
     19 C19         4.5779    2.9578    0.0000 C.3       1 UNK         0.0000 
     20 C20         5.0017    1.7140    0.0000 C.3       1 UNK         0.0000 
     21 N21         1.7050   -2.9604    0.0000 N.4       1 UNK         0.0000 
@<TRIPOS>BOND
     1    1    2 1    
     2    2    7 ar   
     3    2    3 ar   
     4    3    4 ar   
     5    4    5 ar   
     6    5    6 ar   
     7    5    8 1    
     8    6    7 ar   
     9    8    9 1    
    10    9   10 1    
    11   10   11 1    
    12   10   21 1    
    13   11   16 1    
    14   11   12 1    
    15   12   13 1    
    16   13   14 1    
    17   14   15 1    
    18   15   20 1    
    19   15   16 1    
    20   15   17 1    
    21   17   18 1    
    22   18   19 1    
    23   19   20 1    
@<TRIPOS>SUBSTRUCTURE
     1 UNK         1 GROUP             0       ****    0 ROOT    
