@<TRIPOS>MOLECULE
ZINC93928342
27   29    1
SMALL
USER_CHARGES


@<TRIPOS>ATOM
      1 C1         -1.0295   -1.1651    0.0000 C.3       1 UNK         0.0000 
      2 C2         -2.1547   -0.5143    0.0000 C.3       1 UNK         0.0000 
      3 C3         -2.1537    0.7857    0.0000 C.3       1 UNK         0.0000 
      4 C4         -1.0274    1.4349    0.0000 C.2       1 UNK         0.0000 
      5 O5         -1.0263    2.7349    0.0000 O.2       1 UNK         0.0000 
      6 N6          0.0979    0.7839    0.0000 N.am      1 UNK         0.0000 
      7 C7          1.2242    1.4331    0.0000 C.3       1 UNK         0.0000 
      8 C8          2.3495    0.7821    0.0000 C.ar      1 UNK         0.0000 
      9 C9          2.3484   -0.5177    0.0000 C.ar      1 UNK         0.0000 
     10 C10         3.4737   -1.1687    0.0000 C.ar      1 UNK         0.0000 
     11 C11         4.6000   -0.5195    0.0000 C.ar      1 UNK         0.0000 
     12 N12         4.6011    0.7803    0.0000 N.ar      1 UNK         0.0000 
     13 C13         3.4758    1.4313    0.0000 C.ar      1 UNK         0.0000 
     14 N14         5.7256   -1.1708    0.0000 N.pl3     1 UNK         0.0000 
     15 C15         5.8600   -2.4635    0.0000 C.ar      1 UNK         0.0000 
     16 N16         7.1317   -2.7349    0.0000 N.2       1 UNK         0.0000 
     17 C17         7.7822   -1.6094    0.0000 C.ar      1 UNK         0.0000 
     18 C18         6.9133   -0.6425    0.0000 C.ar      1 UNK         0.0000 
     19 O19        -3.2790    1.4368    0.0000 O.3       1 UNK         0.0000 
     20 C20        -4.4053    0.7875    0.0000 C.ar      1 UNK         0.0000 
     21 C21        -4.4063   -0.5125    0.0000 C.ar      1 UNK         0.0000 
     22 C22        -5.5327   -1.1617    0.0000 C.ar      1 UNK         0.0000 
     23 C23        -6.6579   -0.5106    0.0000 C.ar      1 UNK         0.0000 
     24 C24        -6.6569    0.7894    0.0000 C.ar      1 UNK         0.0000 
     25 C25        -5.5306    1.4386    0.0000 C.ar      1 UNK         0.0000 
     26 Cl26       -7.7822    1.4401    0.0000 Cl        1 UNK         0.0000 
     27 C27        -3.2811   -1.1632    0.0000 C.3       1 UNK         0.0000 
@<TRIPOS>BOND
     1    1    2 1    
     2    2    3 1    
     3    2   27 1    
     4    3    4 1    
     5    3   19 1    
     6    4    5 2    
     7    4    6 am   BACKBONE|DICT|INTERRES
     8    6    7 1    
     9    7    8 1    
    10    8   13 ar   
    11    8    9 ar   
    12    9   10 ar   
    13   10   11 ar   
    14   11   12 ar   
    15   11   14 1    
    16   12   13 ar   
    17   14   18 ar   
    18   14   15 ar   
    19   15   16 ar   
    20   16   17 ar   
    21   17   18 ar   
    22   19   20 1    
    23   20   25 ar   
    24   20   21 ar   
    25   21   22 ar   
    26   22   23 ar   
    27   23   24 ar   
    28   24   25 ar   
    29   24   26 1    
@<TRIPOS>SUBSTRUCTURE
     1 UNK         1 GROUP             0       ****    0 ROOT    
