@<TRIPOS>MOLECULE
ZINC91144182
23   24    1
SMALL
USER_CHARGES


@<TRIPOS>ATOM
      1 C1          3.0691   -5.5000    0.0000 C.3       1 UNK         0.0000 
      2 C2          3.0725   -4.1999    0.0000 C.3       1 UNK         0.0000 
      3 C3          1.9482   -3.5465    0.0000 C.3       1 UNK         0.0000 
      4 C4          1.9518   -2.2461    0.0000 C.3       1 UNK         0.0000 
      5 C5          3.0803   -1.5997    0.0000 C.2       1 UNK         0.0000 
      6 O6          3.0849   -0.2999    0.0000 O.2       1 UNK         0.0000 
      7 O7          4.2043   -2.2542    0.0000 O.3       1 UNK         0.0000 
      8 C8          5.3328   -1.6083    0.0000 C.3       1 UNK         0.0000 
      9 N9          0.8267   -1.5925    0.0000 N.am      1 UNK         0.0000 
     10 C10         0.8293   -0.2919    0.0000 C.2       1 UNK         0.0000 
     11 O11         1.9570    0.3553    0.0000 O.2       1 UNK         0.0000 
     12 C12        -0.2841    0.3569    0.0000 C.2       1 UNK         0.0000 
     13 O13        -1.4827   -0.1639    0.0000 O.3       1 UNK         0.0000 
     14 N14        -2.3442    0.7999    0.0000 N.2       1 UNK         0.0000 
     15 C15        -1.6931    1.9323    0.0000 C.2       1 UNK         0.0000 
     16 C16        -0.4216    1.6510    0.0000 C         1 UNK         0.0000 
     17 C17        -2.2173    3.1133    0.0000 C.ar      1 UNK         0.0000 
     18 C18        -1.4518    4.1679    0.0000 C.ar      1 UNK         0.0000 
     19 C19        -1.9684    5.3473    0.0000 C.ar      1 UNK         0.0000 
     20 C20        -3.2659    5.5000    0.0000 C.ar      1 UNK         0.0000 
     21 C21        -4.0311    4.4412    0.0000 C.ar      1 UNK         0.0000 
     22 C22        -3.5116    3.2623    0.0000 C.ar      1 UNK         0.0000 
     23 Cl23       -5.3328    4.5990    0.0000 Cl        1 UNK         0.0000 
@<TRIPOS>BOND
     1    1    2 1    
     2    2    3 1    
     3    3    4 1    
     4    4    5 1    
     5    4    9 1    
     6    5    6 2    
     7    5    7 1    
     8    7    8 1    
     9    9   10 am   BACKBONE|DICT|INTERRES
    10   10   11 2    
    11   10   12 1    
    12   12   16 2    
    13   12   13 1    
    14   13   14 1    
    15   14   15 2    
    16   15   16 1    
    17   15   17 1    
    18   17   22 ar   
    19   17   18 ar   
    20   18   19 ar   
    21   19   20 ar   
    22   20   21 ar   
    23   21   22 ar   
    24   21   23 1    
@<TRIPOS>SUBSTRUCTURE
     1 UNK         1 GROUP             0       ****    0 ROOT    
