@<TRIPOS>MOLECULE
ZINC94615200
20   21    1
SMALL
USER_CHARGES


@<TRIPOS>ATOM
      1 C1         -4.1513    2.5463    0.0000 C.3       1 UNK         0.0000 
      2 C2         -3.2816    1.5802    0.0000 C.3       1 UNK         0.0000 
      3 N3         -2.0099    1.8500    0.0000 N.3       1 UNK         0.0000 
      4 C4         -1.1405    0.8839    0.0000 C.3       1 UNK         0.0000 
      5 C5         -2.1922    0.1197    0.0000 C.3       1 UNK         0.0000 
      6 C6         -1.7913   -1.1171    0.0000 C.3       1 UNK         0.0000 
      7 C7         -0.4915   -1.1168    0.0000 C.3       1 UNK         0.0000 
      8 C8         -0.0888    0.1190    0.0000 C.3       1 UNK         0.0000 
      9 S9          0.2726   -2.1691    0.0000 S.3       1 UNK         0.0000 
     10 C10         1.5656   -2.0336    0.0000 C.ar      1 UNK         0.0000 
     11 C11         2.3292   -3.0856    0.0000 C.ar      1 UNK         0.0000 
     12 C12         3.6222   -2.9501    0.0000 C.ar      1 UNK         0.0000 
     13 N13         4.1513   -1.7627    0.0000 N.ar      1 UNK         0.0000 
     14 C14         3.3877   -0.7107    0.0000 C.ar      1 UNK         0.0000 
     15 C15         2.0947   -0.8462    0.0000 C.ar      1 UNK         0.0000 
     16 C16        -0.2700    1.8493    0.0000 C.2       1 UNK         0.0000 
     17 O17        -0.6712    3.0856    0.0000 O.2       1 UNK         0.0000 
     18 O18         1.0014    1.5783    0.0000 O.3       1 UNK         0.0000 
     19 C19         1.8719    2.5440    0.0000 C.3       1 UNK         0.0000 
     20 C20         3.1433    2.2731    0.0000 C.3       1 UNK         0.0000 
@<TRIPOS>BOND
     1    1    2 1    
     2    2    3 1    
     3    3    4 1    
     4    4    8 1    
     5    4    5 1    
     6    4   16 1    
     7    5    6 1    
     8    6    7 1    
     9    7    8 1    
    10    7    9 1    
    11    9   10 1    
    12   10   15 ar   
    13   10   11 ar   
    14   11   12 ar   
    15   12   13 ar   
    16   13   14 ar   
    17   14   15 ar   
    18   16   17 2    
    19   16   18 1    
    20   18   19 1    
    21   19   20 1    
@<TRIPOS>SUBSTRUCTURE
     1 UNK         1 GROUP             0       ****    0 ROOT    
