@<TRIPOS>MOLECULE
ZINC24623961
32   34    1
SMALL
USER_CHARGES


@<TRIPOS>ATOM
      1 C1          0.1020    3.7094    0.0000 C.3       1 UNK         0.0000 
      2 C2          0.1010    2.4094    0.0000 C.3       1 UNK         0.0000 
      3 C3         -1.0253    1.7604    0.0000 C.3       1 UNK         0.0000 
      4 C4         -1.0263    0.4605    0.0000 C.3       1 UNK         0.0000 
      5 C5          0.0989   -0.1906    0.0000 C.2       1 UNK         0.0000 
      6 O6          0.0979   -1.4906    0.0000 O.2       1 UNK         0.0000 
      7 N7          1.2252    0.4586    0.0000 N.am      1 UNK         0.0000 
      8 C8          2.3505   -0.1924    0.0000 C.3       1 UNK         0.0000 
      9 C9          3.4768    0.4568    0.0000 C.ar      1 UNK         0.0000 
     10 C10         3.4779    1.7568    0.0000 C.ar      1 UNK         0.0000 
     11 C11         4.6042    2.4060    0.0000 C.ar      1 UNK         0.0000 
     12 C12         5.7295    1.7550    0.0000 C.ar      1 UNK         0.0000 
     13 C13         5.7284    0.4550    0.0000 C.ar      1 UNK         0.0000 
     14 C14         4.6021   -0.1942    0.0000 C.ar      1 UNK         0.0000 
     15 C15         4.6011   -1.4942    0.0000 C.3       1 UNK         0.0000 
     16 N16         5.7266   -2.1452    0.0000 N.pl3     1 UNK         0.0000 
     17 C17         6.9143   -1.6169    0.0000 C.ar      1 UNK         0.0000 
     18 C18         7.7832   -2.5839    0.0000 C.ar      1 UNK         0.0000 
     19 C19         7.1327   -3.7094    0.0000 C.ar      1 UNK         0.0000 
     20 N20         5.8610   -3.4380    0.0000 N.2       1 UNK         0.0000 
     21 N21        -2.1527   -0.1888    0.0000 N.am      1 UNK         0.0000 
     22 C22        -3.2779    0.4623    0.0000 C.2       1 UNK         0.0000 
     23 O23        -3.2769    1.7623    0.0000 O.2       1 UNK         0.0000 
     24 C24        -4.4042   -0.1869    0.0000 C.ar      1 UNK         0.0000 
     25 C25        -4.4053   -1.4869    0.0000 C.ar      1 UNK         0.0000 
     26 C26        -5.5316   -2.1361    0.0000 C.ar      1 UNK         0.0000 
     27 C27        -6.6569   -1.4851    0.0000 C.ar      1 UNK         0.0000 
     28 C28        -6.6558   -0.1851    0.0000 C.ar      1 UNK         0.0000 
     29 C29        -5.5295    0.4641    0.0000 C.ar      1 UNK         0.0000 
     30 Cl30       -5.5285    1.7638    0.0000 Cl        1 UNK         0.0000 
     31 Cl31       -7.7832   -2.1343    0.0000 Cl        1 UNK         0.0000 
     32 C32         1.2263    1.7586    0.0000 C.3       1 UNK         0.0000 
@<TRIPOS>BOND
     1    1    2 1    
     2    2    3 1    
     3    2   32 1    
     4    3    4 1    
     5    4    5 1    
     6    4   21 1    
     7    5    6 2    
     8    5    7 am   BACKBONE|DICT|INTERRES
     9    7    8 1    
    10    8    9 1    
    11    9   14 ar   
    12    9   10 ar   
    13   10   11 ar   
    14   11   12 ar   
    15   12   13 ar   
    16   13   14 ar   
    17   14   15 1    
    18   15   16 1    
    19   16   20 ar   
    20   16   17 ar   
    21   17   18 ar   
    22   18   19 ar   
    23   19   20 ar   
    24   21   22 am   BACKBONE|DICT|INTERRES
    25   22   23 2    
    26   22   24 1    
    27   24   29 ar   
    28   24   25 ar   
    29   25   26 ar   
    30   26   27 ar   
    31   27   28 ar   
    32   27   31 1    
    33   28   29 ar   
    34   29   30 1    
@<TRIPOS>SUBSTRUCTURE
     1 UNK         1 GROUP             0       ****    0 ROOT    
