@<TRIPOS>MOLECULE
ZINC80806182
26   28    1
SMALL
USER_CHARGES


@<TRIPOS>ATOM
      1 C1          7.5744    0.6402    0.0000 C.3       1 UNK         0.0000 
      2 C2          6.4483    1.2897    0.0000 C.3       1 UNK         0.0000 
      3 O3          5.3228    0.6389    0.0000 O.3       1 UNK         0.0000 
      4 C4          4.1965    1.2884    0.0000 C.3       1 UNK         0.0000 
      5 C5          3.0712    0.6379    0.0000 C.2       1 UNK         0.0000 
      6 S6          2.9360   -0.6551    0.0000 S.3       1 UNK         0.0000 
      7 C7          1.6646   -0.9260    0.0000 C         1 UNK         0.0000 
      8 C8          1.0141    0.1995    0.0000 C.2       1 UNK         0.0000 
      9 N9          1.8833    1.1662    0.0000 N.2       1 UNK         0.0000 
     10 C10        -0.2788    0.3345    0.0000 C.3       1 UNK         0.0000 
     11 N11        -1.0425   -0.7177    0.0000 N.am      1 UNK         0.0000 
     12 C12        -2.3354   -0.5825    0.0000 C.2       1 UNK         0.0000 
     13 O13        -2.8648    0.6049    0.0000 O.2       1 UNK         0.0000 
     14 C14        -3.0988   -1.6347    0.0000 C.3       1 UNK         0.0000 
     15 C15        -4.3918   -1.4995    0.0000 C.ar      1 UNK         0.0000 
     16 C16        -5.2609   -2.4662    0.0000 C.ar      1 UNK         0.0000 
     17 N17        -6.4489   -1.9382    0.0000 N.pl3     1 UNK         0.0000 
     18 C18        -6.3139   -0.6452    0.0000 C.ar      1 UNK         0.0000 
     19 C19        -5.0423   -0.3743    0.0000 C.ar      1 UNK         0.0000 
     20 C20        -4.6414    0.8623    0.0000 C.ar      1 UNK         0.0000 
     21 C21        -5.5118    1.8279    0.0000 C.ar      1 UNK         0.0000 
     22 C22        -6.7832    1.5570    0.0000 C.ar      1 UNK         0.0000 
     23 C23        -7.1841    0.3204    0.0000 C.ar      1 UNK         0.0000 
     24 C24        -7.5744   -2.5887    0.0000 C.3       1 UNK         0.0000 
     25 C25        -0.5128   -1.9049    0.0000 C.3       1 UNK         0.0000 
     26 C26         4.1960    2.5887    0.0000 C.3       1 UNK         0.0000 
@<TRIPOS>BOND
     1    1    2 1    
     2    2    3 1    
     3    3    4 1    
     4    4    5 1    
     5    4   26 1    
     6    5    9 2    
     7    5    6 1    
     8    6    7 1    
     9    7    8 2    
    10    8    9 1    
    11    8   10 1    
    12   10   11 1    
    13   11   12 am   BACKBONE|DICT|INTERRES
    14   11   25 1    
    15   12   13 2    
    16   12   14 1    
    17   14   15 1    
    18   15   19 ar   
    19   15   16 ar   
    20   16   17 ar   
    21   17   18 ar   
    22   17   24 1    
    23   18   23 ar   
    24   18   19 ar   
    25   19   20 ar   
    26   20   21 ar   
    27   21   22 ar   
    28   22   23 ar   
@<TRIPOS>SUBSTRUCTURE
     1 UNK         1 GROUP             0       ****    0 ROOT    
