@<TRIPOS>MOLECULE
ZINC87325311
22   23    1
SMALL
USER_CHARGES


@<TRIPOS>ATOM
      1 C1         -2.3237   -5.4442    0.0000 C.3       1 UNK         0.0000 
      2 C2         -2.3263   -4.1442    0.0000 C.3       1 UNK         0.0000 
      3 C3         -1.2017   -3.4918    0.0000 C.3       1 UNK         0.0000 
      4 C4         -1.2043   -2.1918    0.0000 C.3       1 UNK         0.0000 
      5 N5         -2.3315   -1.5442    0.0000 N.am      1 UNK         0.0000 
      6 C6         -3.4560   -2.1963    0.0000 C.3       1 UNK         0.0000 
      7 C7         -4.5831   -1.5486    0.0000 C.3       1 UNK         0.0000 
      8 C8         -4.5859   -0.2486    0.0000 C.3       1 UNK         0.0000 
      9 C9         -3.4612    0.4035    0.0000 C.3       1 UNK         0.0000 
     10 C10        -2.3341   -0.2441    0.0000 C.2       1 UNK         0.0000 
     11 O11        -1.2095    0.4082    0.0000 O.2       1 UNK         0.0000 
     12 C12        -0.0798   -1.5397    0.0000 C.2       1 UNK         0.0000 
     13 O13         1.0473   -2.1874    0.0000 O.2       1 UNK         0.0000 
     14 N14        -0.0824   -0.2397    0.0000 N.am      1 UNK         0.0000 
     15 C15         1.0421    0.4126    0.0000 C.3       1 UNK         0.0000 
     16 C16         1.0395    1.7126    0.0000 C.3       1 UNK         0.0000 
     17 O17         2.1640    2.3647    0.0000 O.3       1 UNK         0.0000 
     18 C18         2.1614    3.6647    0.0000 C.3       1 UNK         0.0000 
     19 C19         3.2859    4.3171    0.0000 C.3       1 UNK         0.0000 
     20 C20         4.5859    4.3197    0.0000 C.3       1 UNK         0.0000 
     21 C21         3.9336    5.4442    0.0000 C.3       1 UNK         0.0000 
     22 C22        -3.4534   -3.4963    0.0000 C.3       1 UNK         0.0000 
@<TRIPOS>BOND
     1    1    2 1    
     2    2    3 1    
     3    2   22 1    
     4    3    4 1    
     5    4    5 1    
     6    4   12 1    
     7    5   10 am   BACKBONE|DICT|INTERRES
     8    5    6 1    
     9    6    7 1    
    10    7    8 1    
    11    8    9 1    
    12    9   10 1    
    13   10   11 2    
    14   12   13 2    
    15   12   14 am   BACKBONE|DICT|INTERRES
    16   14   15 1    
    17   15   16 1    
    18   16   17 1    
    19   17   18 1    
    20   18   19 1    
    21   19   21 1    
    22   19   20 1    
    23   20   21 1    
@<TRIPOS>SUBSTRUCTURE
     1 UNK         1 GROUP             0       ****    0 ROOT    
