@<TRIPOS>MOLECULE
ZINC19606927
20   21    1
SMALL
USER_CHARGES


@<TRIPOS>ATOM
      1 C1         -1.1295    2.9229    0.0000 C.3       1 UNK         0.0000 
      2 O2         -1.1284    1.6228    0.0000 O.3       1 UNK         0.0000 
      3 C3         -2.2538    0.9718    0.0000 C.ar      1 UNK         0.0000 
      4 C4         -3.3801    1.6210    0.0000 C.ar      1 UNK         0.0000 
      5 C5         -4.5054    0.9700    0.0000 C.ar      1 UNK         0.0000 
      6 C6         -4.5044   -0.3298    0.0000 C.ar      1 UNK         0.0000 
      7 C7         -3.3780   -0.9791    0.0000 C.ar      1 UNK         0.0000 
      8 C8         -2.2527   -0.3280    0.0000 C.ar      1 UNK         0.0000 
      9 C9         -1.1264   -0.9772    0.0000 C.3       1 UNK         0.0000 
     10 N10        -0.0010   -0.3264    0.0000 N.3       1 UNK         0.0000 
     11 C11         1.1253   -0.9754    0.0000 C.3       1 UNK         0.0000 
     12 C12         2.2506   -0.3246    0.0000 C.3       1 UNK         0.0000 
     13 C13         3.3770   -0.9736    0.0000 C.ar      1 UNK         0.0000 
     14 C14         4.5023   -0.3228    0.0000 C.ar      1 UNK         0.0000 
     15 C15         5.6287   -0.9720    0.0000 C.ar      1 UNK         0.0000 
     16 C16         5.6297   -2.2718    0.0000 C.ar      1 UNK         0.0000 
     17 C17         4.5044   -2.9229    0.0000 C.ar      1 UNK         0.0000 
     18 N18         3.3780   -2.2736    0.0000 N.ar      1 UNK         0.0000 
     19 C19        -0.0021    0.9736    0.0000 C.3       1 UNK         0.0000 
     20 Br20       -5.6297   -0.9809    0.0000 Br        1 UNK         0.0000 
@<TRIPOS>BOND
     1    1    2 1    
     2    2    3 1    
     3    3    8 ar   
     4    3    4 ar   
     5    4    5 ar   
     6    5    6 ar   
     7    6    7 ar   
     8    6   20 1    
     9    7    8 ar   
    10    8    9 1    
    11    9   10 1    
    12   10   11 1    
    13   10   19 1    
    14   11   12 1    
    15   12   13 1    
    16   13   18 ar   
    17   13   14 ar   
    18   14   15 ar   
    19   15   16 ar   
    20   16   17 ar   
    21   17   18 ar   
@<TRIPOS>SUBSTRUCTURE
     1 UNK         1 GROUP             0       ****    0 ROOT    
