@<TRIPOS>MOLECULE
ZINC91806519
25   27    1
SMALL
USER_CHARGES


@<TRIPOS>ATOM
      1 F1         -6.9794    0.6623    0.0000 F         1 UNK         0.0000 
      2 C2         -5.6953    0.4588    0.0000 C.ar      1 UNK         0.0000 
      3 C3         -5.2297   -0.7549    0.0000 C.ar      1 UNK         0.0000 
      4 C4         -3.9458   -0.9585    0.0000 C.ar      1 UNK         0.0000 
      5 C5         -3.1276    0.0519    0.0000 C.ar      1 UNK         0.0000 
      6 C6         -3.5933    1.2655    0.0000 C.ar      1 UNK         0.0000 
      7 C7         -4.8771    1.4688    0.0000 C.ar      1 UNK         0.0000 
      8 N8         -1.8432   -0.1517    0.0000 N.pl3     1 UNK         0.0000 
      9 C9         -1.2538   -1.3102    0.0000 C.ar      1 UNK         0.0000 
     10 C10         0.0303   -1.1069    0.0000 C.ar      1 UNK         0.0000 
     11 C11         0.2341    0.1772    0.0000 C.ar      1 UNK         0.0000 
     12 N12        -0.9244    0.7674    0.0000 N.2       1 UNK         0.0000 
     13 C13         1.3921    0.7671    0.0000 C.2       1 UNK         0.0000 
     14 O14         1.4605    2.0653    0.0000 O.2       1 UNK         0.0000 
     15 N15         2.4826    0.0591    0.0000 N.am      1 UNK         0.0000 
     16 C16         2.4144   -1.2393    0.0000 C.3       1 UNK         0.0000 
     17 C17         3.5046   -1.9472    0.0000 C.3       1 UNK         0.0000 
     18 C18         1.2562   -1.8295    0.0000 C.3       1 UNK         0.0000 
     19 C19         3.6408    0.6493    0.0000 C.3       1 UNK         0.0000 
     20 C20         4.7310   -0.0589    0.0000 C.3       1 UNK         0.0000 
     21 C21         4.6626   -1.3568    0.0000 C.3       1 UNK         0.0000 
     22 C22         5.7530   -2.0653    0.0000 C.3       1 UNK         0.0000 
     23 C23         6.9113   -1.4748    0.0000 C.3       1 UNK         0.0000 
     24 C24         6.9794   -0.1767    0.0000 C.3       1 UNK         0.0000 
     25 O25         5.8893    0.5316    0.0000 O.3       1 UNK         0.0000 
@<TRIPOS>BOND
     1    1    2 1    
     2    2    7 ar   
     3    2    3 ar   
     4    3    4 ar   
     5    4    5 ar   
     6    5    6 ar   
     7    5    8 1    
     8    6    7 ar   
     9    8   12 ar   
    10    8    9 ar   
    11    9   10 ar   
    12   10   11 ar   
    13   11   12 ar   
    14   11   13 1    
    15   13   14 2    
    16   13   15 am   BACKBONE|DICT|INTERRES
    17   15   16 1    
    18   15   19 1    
    19   16   17 1    
    20   16   18 1    
    21   19   20 1    
    22   20   25 1    
    23   20   21 1    
    24   21   22 1    
    25   22   23 1    
    26   23   24 1    
    27   24   25 1    
@<TRIPOS>SUBSTRUCTURE
     1 UNK         1 GROUP             0       ****    0 ROOT    
