@<TRIPOS>MOLECULE
ZINC86779533
15   16    1
SMALL
USER_CHARGES


@<TRIPOS>ATOM
      1 N1         -3.2861   -3.9690    0.0000 N.1       1 UNK         0.0000 
      2 C2         -2.1590   -3.3213    0.0000 C.1       1 UNK         0.0000 
      3 C3         -1.0318   -2.6736    0.0000 C.ar      1 UNK         0.0000 
      4 C4          0.0927   -3.3257    0.0000 C.ar      1 UNK         0.0000 
      5 C5          1.2201   -2.6781    0.0000 C.ar      1 UNK         0.0000 
      6 C6          1.2227   -1.3780    0.0000 C.ar      1 UNK         0.0000 
      7 C7          0.0982   -0.7257    0.0000 C.ar      1 UNK         0.0000 
      8 N8         -1.0292   -1.3736    0.0000 N.ar      1 UNK         0.0000 
      9 N9          0.1008    0.5741    0.0000 N.2       1 UNK         0.0000 
     10 C10         1.2279    1.2220    0.0000 C.ar      1 UNK         0.0000 
     11 C11         2.4143    0.6908    0.0000 C.ar      1 UNK         0.0000 
     12 C12         3.2861    1.6552    0.0000 C.ar      1 UNK         0.0000 
     13 N13         2.6384    2.7823    0.0000 N.pl3     1 UNK         0.0000 
     14 N14         1.3665    2.5145    0.0000 N.2       1 UNK         0.0000 
     15 C15         3.1696    3.9690    0.0000 C.3       1 UNK         0.0000 
@<TRIPOS>BOND
     1    1    2 3    
     2    2    3 1    
     3    3    8 ar   
     4    3    4 ar   
     5    4    5 ar   
     6    5    6 ar   
     7    6    7 ar   
     8    7    8 ar   
     9    7    9 1    
    10    9   10 1    
    11   10   14 ar   
    12   10   11 ar   
    13   11   12 ar   
    14   12   13 ar   
    15   13   14 ar   
    16   13   15 1    
@<TRIPOS>SUBSTRUCTURE
     1 UNK         1 GROUP             0       ****    0 ROOT    
