@<TRIPOS>MOLECULE
ZINC94139090
21   23    1
SMALL
USER_CHARGES


@<TRIPOS>ATOM
      1 C1          2.9792    3.7178    0.0000 C.3       1 UNK         0.0000 
      2 C2          2.9800    2.4170    0.0000 C.3       1 UNK         0.0000 
      3 N3          1.8657    1.7727    0.0000 N.3       1 UNK         0.0000 
      4 C4          0.7323    2.4167    0.0000 C.3       1 UNK         0.0000 
      5 C5         -0.3900    1.7789    0.0000 C.3       1 UNK         0.0000 
      6 O6         -0.3783    0.4718    0.0000 O.3       1 UNK         0.0000 
      7 C7          0.7448   -0.1894    0.0000 C.3       1 UNK         0.0000 
      8 C8          1.8576    0.4653    0.0000 C.3       1 UNK         0.0000 
      9 C9          0.7441   -1.4691    0.0000 C.3       1 UNK         0.0000 
     10 C10        -0.3664   -2.1202    0.0000 C.3       1 UNK         0.0000 
     11 C11        -0.5154   -3.4171    0.0000 C.3       1 UNK         0.0000 
     12 C12        -1.7757   -3.7178    0.0000 C.3       1 UNK         0.0000 
     13 C13        -2.4231   -2.5808    0.0000 C.ar      1 UNK         0.0000 
     14 C14        -1.5858   -1.5971    0.0000 C.ar      1 UNK         0.0000 
     15 N15        -1.9736   -0.3444    0.0000 N.ar      1 UNK         0.0000 
     16 C16        -3.2432   -0.1056    0.0000 C.ar      1 UNK         0.0000 
     17 C17        -4.1237   -1.0602    0.0000 C.ar      1 UNK         0.0000 
     18 C18        -3.6885   -2.2978    0.0000 C.ar      1 UNK         0.0000 
     19 N19         1.8709   -2.1204    0.0000 N.4       1 UNK         0.0000 
     20 C20         2.9979   -1.4715    0.0000 C.3       1 UNK         0.0000 
     21 C21         4.1237   -2.1233    0.0000 C.3       1 UNK         0.0000 
@<TRIPOS>BOND
     1    1    2 1    
     2    2    3 1    
     3    3    8 1    
     4    3    4 1    
     5    4    5 1    
     6    5    6 1    
     7    6    7 1    
     8    7    8 1    
     9    7    9 1    
    10    9   10 1    
    11    9   19 1    
    12   10   14 1    
    13   10   11 1    
    14   11   12 1    
    15   12   13 1    
    16   13   18 ar   
    17   13   14 ar   
    18   14   15 ar   
    19   15   16 ar   
    20   16   17 ar   
    21   17   18 ar   
    22   19   20 1    
    23   20   21 1    
@<TRIPOS>SUBSTRUCTURE
     1 UNK         1 GROUP             0       ****    0 ROOT    
