@<TRIPOS>MOLECULE
ZINC69783209
23   25    1
SMALL
USER_CHARGES


@<TRIPOS>ATOM
      1 C1          4.9719    1.2918    0.0000 C.3       1 UNK         0.0000 
      2 O2          3.8438    0.6460    0.0000 O.3       1 UNK         0.0000 
      3 C3          3.8391   -0.6540    0.0000 C.ar      1 UNK         0.0000 
      4 C4          4.9626   -1.3080    0.0000 C.ar      1 UNK         0.0000 
      5 C5          4.9579   -2.6080    0.0000 C.ar      1 UNK         0.0000 
      6 C6          3.8297   -3.2541    0.0000 C.ar      1 UNK         0.0000 
      7 C7          2.7063   -2.5999    0.0000 C.ar      1 UNK         0.0000 
      8 C8          2.7109   -1.2999    0.0000 C.ar      1 UNK         0.0000 
      9 C9          1.5875   -0.6460    0.0000 C.3       1 UNK         0.0000 
     10 N10         1.5921    0.6540    0.0000 N.4       1 UNK         0.0000 
     11 C11         2.7203    1.2999    0.0000 C.3       1 UNK         0.0000 
     12 C12         2.7250    2.5999    0.0000 C.3       1 UNK         0.0000 
     13 C13         1.6015    3.2541    0.0000 C.3       1 UNK         0.0000 
     14 C14         0.4733    2.6080    0.0000 C.3       1 UNK         0.0000 
     15 C15         0.4687    1.3080    0.0000 C.3       1 UNK         0.0000 
     16 C16         0.4593   -1.2918    0.0000 C.3       1 UNK         0.0000 
     17 N17        -0.6642   -0.6379    0.0000 N.4       1 UNK         0.0000 
     18 C18        -1.7923   -1.2838    0.0000 C.3       1 UNK         0.0000 
     19 C19        -2.9161   -0.6296    0.0000 C.2       1 UNK         0.0000 
     20 C20        -3.0469    0.6637    0.0000 C         1 UNK         0.0000 
     21 C21        -4.3175    0.9382    0.0000 C         1 UNK         0.0000 
     22 C22        -4.9719   -0.1850    0.0000 C         1 UNK         0.0000 
     23 O23        -4.1053   -1.1543    0.0000 O.3       1 UNK         0.0000 
@<TRIPOS>BOND
     1    1    2 1    
     2    2    3 1    
     3    3    8 ar   
     4    3    4 ar   
     5    4    5 ar   
     6    5    6 ar   
     7    6    7 ar   
     8    7    8 ar   
     9    8    9 1    
    10    9   10 1    
    11    9   16 1    
    12   10   15 1    
    13   10   11 1    
    14   11   12 1    
    15   12   13 1    
    16   13   14 1    
    17   14   15 1    
    18   16   17 1    
    19   17   18 1    
    20   18   19 1    
    21   19   23 1    
    22   19   20 2    
    23   20   21 1    
    24   21   22 2    
    25   22   23 1    
@<TRIPOS>SUBSTRUCTURE
     1 UNK         1 GROUP             0       ****    0 ROOT    
