@<TRIPOS>MOLECULE
ZINC78774231
21   23    1
SMALL
USER_CHARGES


@<TRIPOS>ATOM
      1 O1          3.1474    3.5719    0.0000 O.2       1 UNK         0.0000 
      2 C2          3.1464    2.2719    0.0000 C.2       1 UNK         0.0000 
      3 C3          4.2717    1.6208    0.0000 C.3       1 UNK         0.0000 
      4 C4          4.6071    0.3648    0.0000 C.3       1 UNK         0.0000 
      5 C5          5.8632    0.7002    0.0000 C.3       1 UNK         0.0000 
      6 C6          5.5278    1.9563    0.0000 C.3       1 UNK         0.0000 
      7 N7          2.0201    1.6227    0.0000 N.am      1 UNK         0.0000 
      8 C8          0.8948    2.2737    0.0000 C.3       1 UNK         0.0000 
      9 C9         -0.2315    1.6245    0.0000 C.3       1 UNK         0.0000 
     10 N10        -0.2326    0.3245    0.0000 N.pl3     1 UNK         0.0000 
     11 C11         0.8927   -0.3263    0.0000 C.3       1 UNK         0.0000 
     12 C12         2.0190    0.3227    0.0000 C.3       1 UNK         0.0000 
     13 C13        -1.3589   -0.3245    0.0000 C.ar      1 UNK         0.0000 
     14 C14        -2.4842    0.3263    0.0000 C.ar      1 UNK         0.0000 
     15 C15        -3.6105   -0.3229    0.0000 C.ar      1 UNK         0.0000 
     16 C16        -3.6115   -1.6229    0.0000 C.ar      1 UNK         0.0000 
     17 C17        -2.4863   -2.2737    0.0000 C.ar      1 UNK         0.0000 
     18 C18        -1.3599   -1.6245    0.0000 C.ar      1 UNK         0.0000 
     19 C19        -4.7379   -2.2719    0.0000 C.2       1 UNK         0.0000 
     20 O20        -5.8632   -1.6211    0.0000 O.2       1 UNK         0.0000 
     21 N21        -4.7389   -3.5719    0.0000 N.am      1 UNK         0.0000 
@<TRIPOS>BOND
     1    1    2 2    
     2    2    3 1    
     3    2    7 am   BACKBONE|DICT|INTERRES
     4    3    6 1    
     5    3    4 1    
     6    4    5 1    
     7    5    6 1    
     8    7   12 1    
     9    7    8 1    
    10    8    9 1    
    11    9   10 1    
    12   10   11 1    
    13   10   13 1    
    14   11   12 1    
    15   13   18 ar   
    16   13   14 ar   
    17   14   15 ar   
    18   15   16 ar   
    19   16   17 ar   
    20   16   19 1    
    21   17   18 ar   
    22   19   20 2    
    23   19   21 am   BACKBONE|DICT|INTERRES
@<TRIPOS>SUBSTRUCTURE
     1 UNK         1 GROUP             0       ****    0 ROOT    
