@<TRIPOS>MOLECULE
ZINC20912926
18   19    1
SMALL
USER_CHARGES


@<TRIPOS>ATOM
      1 C1          4.1984    2.5194    0.0000 C.3       1 UNK         0.0000 
      2 O2          3.9295    1.2474    0.0000 O.3       1 UNK         0.0000 
      3 C3          2.6937    0.8444    0.0000 C.3       1 UNK         0.0000 
      4 C4          2.4249   -0.4273    0.0000 C.3       1 UNK         0.0000 
      5 C5          3.2956   -1.3925    0.0000 C.3       1 UNK         0.0000 
      6 C6          2.6469   -2.5194    0.0000 C.3       1 UNK         0.0000 
      7 C7          1.3752   -2.2503    0.0000 C.3       1 UNK         0.0000 
      8 N8          1.2376   -0.9575    0.0000 N.am      1 UNK         0.0000 
      9 C9          0.1110   -0.3088    0.0000 C.2       1 UNK         0.0000 
     10 O10         0.1095    0.9913    0.0000 O.2       1 UNK         0.0000 
     11 C11        -1.0138   -0.9601    0.0000 C.3       1 UNK         0.0000 
     12 N12        -2.1404   -0.3114    0.0000 N.3       1 UNK         0.0000 
     13 C13        -2.2779    0.9811    0.0000 C.3       1 UNK         0.0000 
     14 C14        -3.5497    1.2503    0.0000 C.3       1 UNK         0.0000 
     15 N15        -4.1984    0.1236    0.0000 N.3       1 UNK         0.0000 
     16 C16        -3.3276   -0.8415    0.0000 C.3       1 UNK         0.0000 
     17 C17        -3.5965   -2.1135    0.0000 C.3       1 UNK         0.0000 
     18 C18        -1.0122   -2.2601    0.0000 C.3       1 UNK         0.0000 
@<TRIPOS>BOND
     1    1    2 1    
     2    2    3 1    
     3    3    4 1    
     4    4    8 1    
     5    4    5 1    
     6    5    6 1    
     7    6    7 1    
     8    7    8 1    
     9    8    9 am   BACKBONE|DICT|INTERRES
    10    9   10 2    
    11    9   11 1    
    12   11   12 1    
    13   11   18 1    
    14   12   16 1    
    15   12   13 1    
    16   13   14 1    
    17   14   15 1    
    18   15   16 1    
    19   16   17 1    
@<TRIPOS>SUBSTRUCTURE
     1 UNK         1 GROUP             0       ****    0 ROOT    
