@<TRIPOS>MOLECULE
ZINC14180989
32   34    1
SMALL
USER_CHARGES


@<TRIPOS>ATOM
      1 C1          2.6853    3.4864    0.0000 C.3       1 UNK         0.0000 
      2 O2          1.5600    2.8353    0.0000 O.3       1 UNK         0.0000 
      3 C3          1.5611    1.5353    0.0000 C.3       1 UNK         0.0000 
      4 C4          0.4358    0.8845    0.0000 C.3       1 UNK         0.0000 
      5 N5          0.4368   -0.4155    0.0000 N.am      1 UNK         0.0000 
      6 C6         -0.6885   -1.0663    0.0000 C.2       1 UNK         0.0000 
      7 O7         -0.6875   -2.3663    0.0000 O.2       1 UNK         0.0000 
      8 C8         -1.8148   -0.4173    0.0000 C.ar      1 UNK         0.0000 
      9 C9         -1.8159    0.8827    0.0000 C.ar      1 UNK         0.0000 
     10 C10        -2.9422    1.5319    0.0000 C.ar      1 UNK         0.0000 
     11 C11        -4.0675    0.8809    0.0000 C.ar      1 UNK         0.0000 
     12 C12        -4.0665   -0.4191    0.0000 C.ar      1 UNK         0.0000 
     13 C13        -2.9401   -1.0681    0.0000 C.ar      1 UNK         0.0000 
     14 C14        -5.3025   -0.8216    0.0000 C.ar      1 UNK         0.0000 
     15 C15        -5.7032   -2.0585    0.0000 C.3       1 UNK         0.0000 
     16 C16        -6.0677    0.2293    0.0000 C.ar      1 UNK         0.0000 
     17 N17        -5.3043    1.2816    0.0000 N.pl3     1 UNK         0.0000 
     18 C18        -7.3675    0.2283    0.0000 C.3       1 UNK         0.0000 
     19 C19         1.5631   -1.0647    0.0000 C.3       1 UNK         0.0000 
     20 C20         2.6884   -0.4137    0.0000 C.2       1 UNK         0.0000 
     21 O21         2.6874    0.8864    0.0000 O.2       1 UNK         0.0000 
     22 N22         3.8148   -1.0629    0.0000 N.am      1 UNK         0.0000 
     23 C23         4.9401   -0.4118    0.0000 C.ar      1 UNK         0.0000 
     24 C24         4.9390    0.8882    0.0000 C.ar      1 UNK         0.0000 
     25 C25         6.0643    1.5390    0.0000 C.ar      1 UNK         0.0000 
     26 C26         7.1907    0.8900    0.0000 C.ar      1 UNK         0.0000 
     27 C27         7.1917   -0.4100    0.0000 C.ar      1 UNK         0.0000 
     28 C28         6.0664   -1.0611    0.0000 C.ar      1 UNK         0.0000 
     29 C29         6.0675   -2.3611    0.0000 C.3       1 UNK         0.0000 
     30 F30         7.3675   -2.3601    0.0000 F         1 UNK         0.0000 
     31 F31         6.7182   -3.4864    0.0000 F         1 UNK         0.0000 
     32 F32         4.9422   -3.0119    0.0000 F         1 UNK         0.0000 
@<TRIPOS>BOND
     1    1    2 1    
     2    2    3 1    
     3    3    4 1    
     4    4    5 1    
     5    5    6 am   BACKBONE|DICT|INTERRES
     6    5   19 1    
     7    6    7 2    
     8    6    8 1    
     9    8   13 ar   
    10    8    9 ar   
    11    9   10 ar   
    12   10   11 ar   
    13   11   17 ar   
    14   11   12 ar   
    15   12   13 ar   
    16   12   14 ar   
    17   14   15 1    
    18   14   16 ar   
    19   16   17 ar   
    20   16   18 1    
    21   19   20 1    
    22   20   21 2    
    23   20   22 am   BACKBONE|DICT|INTERRES
    24   22   23 1    
    25   23   28 ar   
    26   23   24 ar   
    27   24   25 ar   
    28   25   26 ar   
    29   26   27 ar   
    30   27   28 ar   
    31   28   29 1    
    32   29   30 1    
    33   29   31 1    
    34   29   32 1    
@<TRIPOS>SUBSTRUCTURE
     1 UNK         1 GROUP             0       ****    0 ROOT    
