@<TRIPOS>MOLECULE
ZINC01768181
46   48    1
SMALL
USER_CHARGES


@<TRIPOS>ATOM
      1 C1         -6.7570   -2.0279    0.0000 C.2       1 UNK         0.0000 
      2 C2         -5.6317   -2.6787    0.0000 C.2       1 UNK         0.0000 
      3 C3         -4.5053   -2.0297    0.0000 C.3       1 UNK         0.0000 
      4 O4         -3.3801   -2.6805    0.0000 O.3       1 UNK         0.0000 
      5 C5         -2.2537   -2.0315    0.0000 C.ar      1 UNK         0.0000 
      6 C6         -2.2527   -0.7315    0.0000 C.ar      1 UNK         0.0000 
      7 C7         -1.1263   -0.0823    0.0000 C.ar      1 UNK         0.0000 
      8 C8         -0.0010   -0.7333    0.0000 C.ar      1 UNK         0.0000 
      9 C9         -0.0021   -2.0331    0.0000 C.ar      1 UNK         0.0000 
     10 C10        -1.1284   -2.6823    0.0000 C.ar      1 UNK         0.0000 
     11 O11         1.1232   -2.6841    0.0000 O.3       1 UNK         0.0000 
     12 C12         2.2496   -2.0349    0.0000 C.2       1 UNK         0.0000 
     13 C13         2.2506   -0.7352    0.0000 C.2       1 UNK         0.0000 
     14 C14         1.1253   -0.0841    0.0000 C.2       1 UNK         0.0000 
     15 O15         1.1263    1.2159    0.0000 O.2       1 UNK         0.0000 
     16 C16         3.3769   -0.0859    0.0000 C.ar      1 UNK         0.0000 
     17 C17         4.5022   -0.7370    0.0000 C.ar      1 UNK         0.0000 
     18 C18         5.6286   -0.0878    0.0000 C.ar      1 UNK         0.0000 
     19 C19         5.6296    1.2123    0.0000 C.ar      1 UNK         0.0000 
     20 C20         4.5043    1.8633    0.0000 C.ar      1 UNK         0.0000 
     21 C21         3.3780    1.2141    0.0000 C.ar      1 UNK         0.0000 
     22 O22         4.5053    3.1633    0.0000 O.3       1 UNK         0.0000 
     23 C23         5.6317    3.8123    0.0000 C.3       1 UNK         0.0000 
     24 O24         6.7559    1.8615    0.0000 O.3       1 UNK         0.0000 
     25 C25         7.8802    1.2128   -0.0707 C.3       1 UNK         0.0000 
     26 C26         3.3748   -2.6860    0.0000 C.3       1 UNK         0.0000 
     27 F27         2.7238   -3.8113    0.0000 F         1 UNK         0.0000 
     28 F28         4.0238   -3.8123    0.0000 F         1 UNK         0.0000 
     29 F29         4.5012   -2.0367    0.0000 F         1 UNK         0.0000 
     30 CH1        -7.6927   -2.5672    0.0000 H         1 UNK         0.0000 
     31 CH2        -6.7562   -0.9479    0.0000 H         1 UNK         0.0000 
     32 CH         -5.6325   -3.7587    0.0000 H         1 UNK         0.0000 
     33 H31        -4.5047   -1.3218    0.8288 H         1 UNK         0.0000 
     34 H32        -4.5047   -1.3218   -0.8288 H         1 UNK         0.0000 
     35 H6         -3.1876   -0.1908   -0.0000 H         1 UNK         0.0000 
     36 H7         -1.1255    0.9977    0.0000 H         1 UNK         0.0000 
     37 H10        -1.1292   -3.7623   -0.0000 H         1 UNK         0.0000 
     38 H17         4.5012   -1.8170   -0.0000 H         1 UNK         0.0000 
     39 H18         6.5635   -0.6285   -0.0000 H         1 UNK         0.0000 
     40 H21         2.4432    1.7549   -0.0000 H         1 UNK         0.0000 
     41 H231        5.4340    4.8842   -0.0000 H         1 UNK         0.0000 
     42 H232        6.2034    3.5488    0.8898 H         1 UNK         0.0000 
     43 H233        6.2034    3.5488   -0.8898 H         1 UNK         0.0000 
     44 H251        8.7097    1.9199   -0.0582 H         1 UNK         0.0000 
     45 H252        7.9655    0.5385    0.7815 H         1 UNK         0.0000 
     46 H253        7.9097    0.6353   -0.9947 H         1 UNK         0.0000 
@<TRIPOS>BOND
     1    1    2 2    
     2    1   30 1    
     3    1   31 1    
     4    2    3 1    
     5    2   32 1    
     6    3    4 1    
     7    3   33 1    
     8    3   34 1    
     9    4    5 1    
    10    5   10 ar   
    11    5    6 ar   
    12    6    7 ar   
    13    6   35 1    
    14    7    8 ar   
    15    7   36 1    
    16    8   14 1    
    17    8    9 ar   
    18    9   10 ar   
    19    9   11 1    
    20   10   37 1    
    21   11   12 1    
    22   12   13 2    
    23   12   26 1    
    24   13   14 1    
    25   13   16 1    
    26   14   15 2    
    27   16   21 ar   
    28   16   17 ar   
    29   17   18 ar   
    30   17   38 1    
    31   18   19 ar   
    32   18   39 1    
    33   19   20 ar   
    34   19   24 1    
    35   20   21 ar   
    36   20   22 1    
    37   21   40 1    
    38   22   23 1    
    39   23   41 1    
    40   23   42 1    
    41   23   43 1    
    42   24   25 1    
    43   25   44 1    
    44   25   45 1    
    45   25   46 1    
    46   26   27 1    
    47   26   28 1    
    48   26   29 1    
@<TRIPOS>SUBSTRUCTURE
     1 UNK         1 GROUP             0       ****    0 ROOT    
