@<TRIPOS>MOLECULE
ZINC77386911
26   29    1
SMALL
USER_CHARGES


@<TRIPOS>ATOM
      1 O1          0.2121    4.4521    0.0000 O.3       1 UNK         0.0000 
      2 C2          0.9242    3.4032    0.0000 C.3       1 UNK         0.0000 
      3 C3          2.2126    3.5730    0.0000 C.3       1 UNK         0.0000 
      4 O4          3.1785    2.6975    0.0000 O.3       1 UNK         0.0000 
      5 C5          3.0748    1.3671    0.0000 C.3       1 UNK         0.0000 
      6 C6          1.9849    0.6516    0.0000 C.3       1 UNK         0.0000 
      7 N7          0.7382    1.0184    0.0000 N.am      1 UNK         0.0000 
      8 C8          0.2823    2.2536    0.0000 C.3       1 UNK         0.0000 
      9 C9         -0.1204    0.0996    0.0000 C.2       1 UNK         0.0000 
     10 O10        -1.3484    0.3899    0.0000 O.2       1 UNK         0.0000 
     11 C11         0.2472   -1.1171    0.0000 C.2       1 UNK         0.0000 
     12 C12         1.4869   -1.5259    0.0000 C.2       1 UNK         0.0000 
     13 C13         2.6153   -0.8379    0.0000 C.3       1 UNK         0.0000 
     14 C14         3.7613   -1.5346    0.0000 C.3       1 UNK         0.0000 
     15 C15         3.7938   -2.8814    0.0000 C.3       1 UNK         0.0000 
     16 C16         2.6419   -3.5141    0.0000 C.3       1 UNK         0.0000 
     17 C17         1.4593   -2.8512    0.0000 C.2       1 UNK         0.0000 
     18 S18         0.2421   -3.2625    0.0000 S.3       1 UNK         0.0000 
     19 C19        -0.5028   -2.1934    0.0000 C.2       1 UNK         0.0000 
     20 N20        -1.7820   -2.1939    0.0000 N.pl3     1 UNK         0.0000 
     21 C21        -2.5615   -1.1755    0.0000 C.ar      1 UNK         0.0000 
     22 C22        -2.1724    0.0379    0.0000 C.3       1 UNK         0.0000 
     23 C23        -3.7938   -1.5369    0.0000 C.ar      1 UNK         0.0000 
     24 C24        -3.7608   -2.8361    0.0000 C.ar      1 UNK         0.0000 
     25 C25        -2.5784   -3.2239    0.0000 C.ar      1 UNK         0.0000 
     26 C26        -2.1808   -4.4521    0.0000 C.3       1 UNK         0.0000 
@<TRIPOS>BOND
     1    1    2 1    
     2    2    8 1    
     3    2    3 1    
     4    3    4 1    
     5    4    5 1    
     6    5    6 1    
     7    6    7 1    
     8    7    8 1    
     9    7    9 am   BACKBONE|DICT|INTERRES
    10    9   10 2    
    11    9   11 1    
    12   11   19 2    
    13   11   12 1    
    14   12   17 2    
    15   12   13 1    
    16   13   14 1    
    17   14   15 1    
    18   15   16 1    
    19   16   17 1    
    20   17   18 1    
    21   18   19 1    
    22   19   20 1    
    23   20   25 ar   
    24   20   21 ar   
    25   21   22 1    
    26   21   23 ar   
    27   23   24 ar   
    28   24   25 ar   
    29   25   26 1    
@<TRIPOS>SUBSTRUCTURE
     1 UNK         1 GROUP             0       ****    0 ROOT    
