@<TRIPOS>MOLECULE
ZINC92758496
23   24    1
SMALL
USER_CHARGES


@<TRIPOS>ATOM
      1 O1         -2.8018   -3.5810    0.0000 O.3       1 UNK         0.0000 
      2 C2         -1.6734   -4.2268    0.0000 C.3       1 UNK         0.0000 
      3 C3         -0.5499   -3.5729    0.0000 C.3       1 UNK         0.0000 
      4 O4          0.5782   -4.2188    0.0000 O.3       1 UNK         0.0000 
      5 C5          1.7017   -3.5649    0.0000 C.3       1 UNK         0.0000 
      6 C6          1.6970   -2.2649    0.0000 C.3       1 UNK         0.0000 
      7 N7          0.5689   -1.6188    0.0000 N.am      1 UNK         0.0000 
      8 C8         -0.5548   -2.2729    0.0000 C.3       1 UNK         0.0000 
      9 C9          0.5642   -0.3190    0.0000 C.2       1 UNK         0.0000 
     10 O10         1.6877    0.3351    0.0000 O.2       1 UNK         0.0000 
     11 C11        -0.5642    0.3271    0.0000 C.3       1 UNK         0.0000 
     12 C12        -0.5689    1.6271    0.0000 C.ar      1 UNK         0.0000 
     13 C13         0.5548    2.2810    0.0000 C.ar      1 UNK         0.0000 
     14 F14         1.6830    1.6351    0.0000 F         1 UNK         0.0000 
     15 C15         0.5499    3.5810    0.0000 C.ar      1 UNK         0.0000 
     16 C16        -0.5782    4.2268    0.0000 C.ar      1 UNK         0.0000 
     17 C17        -1.7017    3.5729    0.0000 C.ar      1 UNK         0.0000 
     18 C18        -1.6970    2.2729    0.0000 C.ar      1 UNK         0.0000 
     19 F19        -2.8205    1.6190    0.0000 F         1 UNK         0.0000 
     20 N20        -1.6877   -0.3271    0.0000 N.3       1 UNK         0.0000 
     21 C21        -1.6830   -1.6268    0.0000 C.3       1 UNK         0.0000 
     22 C22        -2.8158    0.3190    0.0000 C.3       1 UNK         0.0000 
     23 C23         2.8205   -1.6107    0.0000 C.3       1 UNK         0.0000 
@<TRIPOS>BOND
     1    1    2 1    
     2    2    3 1    
     3    3    8 1    
     4    3    4 1    
     5    4    5 1    
     6    5    6 1    
     7    6    7 1    
     8    6   23 1    
     9    7    8 1    
    10    7    9 am   BACKBONE|DICT|INTERRES
    11    9   10 2    
    12    9   11 1    
    13   11   12 1    
    14   11   20 1    
    15   12   18 ar   
    16   12   13 ar   
    17   13   14 1    
    18   13   15 ar   
    19   15   16 ar   
    20   16   17 ar   
    21   17   18 ar   
    22   18   19 1    
    23   20   21 1    
    24   20   22 1    
@<TRIPOS>SUBSTRUCTURE
     1 UNK         1 GROUP             0       ****    0 ROOT    
