@<TRIPOS>MOLECULE
ZINC91044029
27   31    1
SMALL
USER_CHARGES


@<TRIPOS>ATOM
      1 O1          1.1345    0.9458    0.0000 O.2       1 UNK         0.0000 
      2 C2          1.1361   -0.3540    0.0000 C.2       1 UNK         0.0000 
      3 C3          0.0108   -1.0051    0.0000 C.ar      1 UNK         0.0000 
      4 C4          0.0123   -2.3054    0.0000 C.ar      1 UNK         0.0000 
      5 N5         -1.1127   -2.9564    0.0000 N.ar      1 UNK         0.0000 
      6 C6         -2.2393   -2.3080    0.0000 C.ar      1 UNK         0.0000 
      7 C7         -2.2409   -1.0079    0.0000 C.ar      1 UNK         0.0000 
      8 N8         -1.1158   -0.3569    0.0000 N.ar      1 UNK         0.0000 
      9 O9         -3.3644   -2.9593    0.0000 O.3       1 UNK         0.0000 
     10 C10        -4.4910   -2.3106    0.0000 C.ar      1 UNK         0.0000 
     11 C11        -5.6163   -2.9616    0.0000 C.ar      1 UNK         0.0000 
     12 C12        -6.7429   -2.3134    0.0000 C.ar      1 UNK         0.0000 
     13 C13        -6.7444   -1.0131    0.0000 C.ar      1 UNK         0.0000 
     14 C14        -5.6194   -0.3621    0.0000 C.ar      1 UNK         0.0000 
     15 C15        -4.4928   -1.0105    0.0000 C.ar      1 UNK         0.0000 
     16 N16         2.2627   -1.0030    0.0000 N.am      1 UNK         0.0000 
     17 C17         3.3878   -0.3517    0.0000 C.3       1 UNK         0.0000 
     18 C18         4.6439   -0.6868    0.0000 C.3       1 UNK         0.0000 
     19 C19         5.7348   -1.3938    0.0000 C.3       1 UNK         0.0000 
     20 C20         6.7444   -0.5747    0.0000 C.3       1 UNK         0.0000 
     21 O21         6.2772    0.6384    0.0000 O.3       1 UNK         0.0000 
     22 C22         4.9793    0.5693    0.0000 C.3       1 UNK         0.0000 
     23 C23         3.7232    0.9042    0.0000 C.3       1 UNK         0.0000 
     24 C24         2.4302    1.0391    0.0000 C.3       1 UNK         0.0000 
     25 C25         2.1584    2.3103    0.0000 C.3       1 UNK         0.0000 
     26 C26         3.2838    2.9616    0.0000 C.3       1 UNK         0.0000 
     27 C27         4.2507    2.0927    0.0000 C.3       1 UNK         0.0000 
@<TRIPOS>BOND
     1    1    2 2    
     2    2    3 1    
     3    2   16 am   BACKBONE|DICT|INTERRES
     4    3    8 ar   
     5    3    4 ar   
     6    4    5 ar   
     7    5    6 ar   
     8    6    7 ar   
     9    6    9 1    
    10    7    8 ar   
    11    9   10 1    
    12   10   15 ar   
    13   10   11 ar   
    14   11   12 ar   
    15   12   13 ar   
    16   13   14 ar   
    17   14   15 ar   
    18   16   17 1    
    19   17   23 1    
    20   17   18 1    
    21   18   22 1    
    22   18   19 1    
    23   19   20 1    
    24   20   21 1    
    25   21   22 1    
    26   22   23 1    
    27   23   27 1    
    28   23   24 1    
    29   24   25 1    
    30   25   26 1    
    31   26   27 1    
@<TRIPOS>SUBSTRUCTURE
     1 UNK         1 GROUP             0       ****    0 ROOT    
