@<TRIPOS>MOLECULE
ZINC93803240
18   19    1
SMALL
USER_CHARGES


@<TRIPOS>ATOM
      1 C1         -2.2800    4.1444    0.0000 C.3       1 UNK         0.0000 
      2 N2         -1.8809    2.9071    0.0000 N.3       1 UNK         0.0000 
      3 C3         -0.6098    2.6341    0.0000 C.3       1 UNK         0.0000 
      4 C4         -0.4710    3.9268    0.0000 C.1       1 UNK         0.0000 
      5 N5         -0.3321    5.2194    0.0000 N.1       1 UNK         0.0000 
      6 C6          0.6904    2.6317    0.0000 C.3       1 UNK         0.0000 
      7 C7          1.0895    1.3945    0.0000 C.3       1 UNK         0.0000 
      8 C8          0.0363    0.6329    0.0000 C.3       1 UNK         0.0000 
      9 C9         -1.0141    1.3986    0.0000 C.3       1 UNK         0.0000 
     10 N10         0.0337   -0.6673    0.0000 N.4       1 UNK         0.0000 
     11 C11         1.1581   -1.3196    0.0000 C.3       1 UNK         0.0000 
     12 C12         1.1555   -2.6195    0.0000 C.3       1 UNK         0.0000 
     13 C13         2.2800   -3.2716    0.0000 C.3       1 UNK         0.0000 
     14 C14         2.2774   -4.5715    0.0000 C.3       1 UNK         0.0000 
     15 C15         1.1503   -5.2194    0.0000 C.3       1 UNK         0.0000 
     16 O16         0.0256   -4.5671    0.0000 O.3       1 UNK         0.0000 
     17 C17         0.0285   -3.2672    0.0000 C.3       1 UNK         0.0000 
     18 C18        -1.0934   -1.3152    0.0000 C.3       1 UNK         0.0000 
@<TRIPOS>BOND
     1    1    2 1    
     2    2    3 1    
     3    3    9 1    
     4    3    4 1    
     5    3    6 1    
     6    4    5 3    
     7    6    7 1    
     8    7    8 1    
     9    8    9 1    
    10    8   10 1    
    11   10   11 1    
    12   10   18 1    
    13   11   12 1    
    14   12   17 1    
    15   12   13 1    
    16   13   14 1    
    17   14   15 1    
    18   15   16 1    
    19   16   17 1    
@<TRIPOS>SUBSTRUCTURE
     1 UNK         1 GROUP             0       ****    0 ROOT    
