@<TRIPOS>MOLECULE
ZINC90680628
22   24    1
SMALL
USER_CHARGES


@<TRIPOS>ATOM
      1 O1          1.1856    0.9370    0.0000 O.2       1 UNK         0.0000 
      2 C2          1.1846   -0.3630    0.0000 C.2       1 UNK         0.0000 
      3 C3          0.0582   -1.0119    0.0000 C.3       1 UNK         0.0000 
      4 N4         -1.0670   -0.3611    0.0000 N.3       1 UNK         0.0000 
      5 C5         -1.0660    0.9389    0.0000 C.3       1 UNK         0.0000 
      6 C6         -2.1913    1.5899    0.0000 C.3       1 UNK         0.0000 
      7 N7         -3.3176    0.9407    0.0000 N.pl3     1 UNK         0.0000 
      8 C8         -3.3184   -0.3593    0.0000 C.ar      1 UNK         0.0000 
      9 C9         -2.1934   -1.0104    0.0000 C.3       1 UNK         0.0000 
     10 N10        -4.5552   -0.7600    0.0000 N.2       1 UNK         0.0000 
     11 N11        -5.3186    0.2922    0.0000 N.pl3     1 UNK         0.0000 
     12 C12        -4.5534    1.3432    0.0000 C.ar      1 UNK         0.0000 
     13 O13        -4.9543    2.5800    0.0000 O.2       1 UNK         0.0000 
     14 C14        -6.6186    0.2933    0.0000 C.3       1 UNK         0.0000 
     15 C15         0.0572   -2.3119    0.0000 C.3       1 UNK         0.0000 
     16 N16         2.3098   -1.0137    0.0000 N.am      1 UNK         0.0000 
     17 C17         3.4362   -0.3648    0.0000 C.3       1 UNK         0.0000 
     18 C18         4.5620   -1.0158    0.0000 C.2       1 UNK         0.0000 
     19 C19         5.7497   -0.4875    0.0000 C         1 UNK         0.0000 
     20 C20         6.6186   -1.4544    0.0000 C         1 UNK         0.0000 
     21 C21         5.9678   -2.5800    0.0000 C         1 UNK         0.0000 
     22 S22         4.6961   -2.3085    0.0000 S.3       1 UNK         0.0000 
@<TRIPOS>BOND
     1    1    2 2    
     2    2    3 1    
     3    2   16 am   BACKBONE|DICT|INTERRES
     4    3    4 1    
     5    3   15 1    
     6    4    9 1    
     7    4    5 1    
     8    5    6 1    
     9    6    7 1    
    10    7   12 ar   
    11    7    8 ar   
    12    8    9 1    
    13    8   10 ar   
    14   10   11 ar   
    15   11   12 ar   
    16   11   14 1    
    17   12   13 2    
    18   16   17 1    
    19   17   18 1    
    20   18   22 1    
    21   18   19 2    
    22   19   20 1    
    23   20   21 2    
    24   21   22 1    
@<TRIPOS>SUBSTRUCTURE
     1 UNK         1 GROUP             0       ****    0 ROOT    
