@<TRIPOS>MOLECULE
ZINC46013255
24   25    1
SMALL
USER_CHARGES


@<TRIPOS>ATOM
      1 O1          0.0995   -2.4104    0.0000 O.2       1 UNK         0.0000 
      2 C2          0.0984   -1.1103    0.0000 C.2       1 UNK         0.0000 
      3 N3          1.2237   -0.4596    0.0000 N.am      1 UNK         0.0000 
      4 C4          2.3500   -1.1088    0.0000 C.ar      1 UNK         0.0000 
      5 C5          2.3511   -2.4085    0.0000 C.ar      1 UNK         0.0000 
      6 C6          3.4774   -3.0578    0.0000 C.ar      1 UNK         0.0000 
      7 C7          4.6027   -2.4070    0.0000 C.ar      1 UNK         0.0000 
      8 C8          4.6017   -1.1070    0.0000 C.ar      1 UNK         0.0000 
      9 C9          3.4753   -0.4577    0.0000 C.ar      1 UNK         0.0000 
     10 C10         3.4743    0.8423    0.0000 C.2       1 UNK         0.0000 
     11 O11         2.3480    1.4913    0.0000 O.2       1 UNK         0.0000 
     12 N12         4.5999    1.4933    0.0000 N.am      1 UNK         0.0000 
     13 C13         5.7876    0.9650    0.0000 C.3       1 UNK         0.0000 
     14 C14         6.6565    1.9320    0.0000 C.3       1 UNK         0.0000 
     15 C15         6.0060    3.0578    0.0000 C.3       1 UNK         0.0000 
     16 C16         4.7343    2.7861    0.0000 C.3       1 UNK         0.0000 
     17 C17         5.7270   -0.4559    0.0000 C.3       1 UNK         0.0000 
     18 N18        -1.0279   -0.4614    0.0000 N.am      1 UNK         0.0000 
     19 C19        -2.1532   -1.1122    0.0000 C.3       1 UNK         0.0000 
     20 C20        -3.2796   -0.4632    0.0000 C.3       1 UNK         0.0000 
     21 N21        -4.4049   -1.1140    0.0000 N.am      1 UNK         0.0000 
     22 C22        -5.5312   -0.4650    0.0000 C.2       1 UNK         0.0000 
     23 O23        -5.5322    0.8350    0.0000 O.2       1 UNK         0.0000 
     24 C24        -6.6565   -1.1158    0.0000 C.3       1 UNK         0.0000 
@<TRIPOS>BOND
     1    1    2 2    
     2    2    3 am   BACKBONE|DICT|INTERRES
     3    2   18 am   BACKBONE|DICT|INTERRES
     4    3    4 1    
     5    4    9 ar   
     6    4    5 ar   
     7    5    6 ar   
     8    6    7 ar   
     9    7    8 ar   
    10    8    9 ar   
    11    8   17 1    
    12    9   10 1    
    13   10   11 2    
    14   10   12 am   BACKBONE|DICT|INTERRES
    15   12   16 1    
    16   12   13 1    
    17   13   14 1    
    18   14   15 1    
    19   15   16 1    
    20   18   19 1    
    21   19   20 1    
    22   20   21 1    
    23   21   22 am   BACKBONE|DICT|INTERRES
    24   22   23 2    
    25   22   24 1    
@<TRIPOS>SUBSTRUCTURE
     1 UNK         1 GROUP             0       ****    0 ROOT    
