@<TRIPOS>MOLECULE
ZINC69656091
20   22    1
SMALL
USER_CHARGES


@<TRIPOS>ATOM
      1 O1         -2.0308    3.0770    0.0000 O.2       1 UNK         0.0000 
      2 C2         -2.0284    1.7773    0.0000 C.2       1 UNK         0.0000 
      3 C3         -3.1532    1.1252    0.0000 C.2       1 UNK         0.0000 
      4 C4         -4.3417    1.6519    0.0000 C         1 UNK         0.0000 
      5 O5         -5.2099    0.6845    0.0000 O.3       1 UNK         0.0000 
      6 C6         -4.5580   -0.4403    0.0000 C         1 UNK         0.0000 
      7 C7         -3.2871   -0.1678    0.0000 C         1 UNK         0.0000 
      8 N8         -0.9016    1.1291    0.0000 N.am      1 UNK         0.0000 
      9 C9         -0.9965   -0.1673    0.0000 C.3       1 UNK         0.0000 
     10 C10        -0.0423   -1.0503    0.0000 C.3       1 UNK         0.0000 
     11 C11         1.2430   -0.8542    0.0000 C.3       1 UNK         0.0000 
     12 N12         1.8914    0.2724    0.0000 N.4       1 UNK         0.0000 
     13 C13         1.4143    1.4819    0.0000 C.3       1 UNK         0.0000 
     14 C14         0.1715    1.8631    0.0000 C.3       1 UNK         0.0000 
     15 C15         3.1878    0.1775    0.0000 C.3       1 UNK         0.0000 
     16 C16         3.7538   -0.9928    0.0000 C.2       1 UNK         0.0000 
     17 C17         3.1394   -2.1387    0.0000 C         1 UNK         0.0000 
     18 S18         4.0396   -3.0770    0.0000 S.3       1 UNK         0.0000 
     19 C19         5.2099   -2.5107    0.0000 C         1 UNK         0.0000 
     20 N20         5.0333   -1.2229    0.0000 N.2       1 UNK         0.0000 
@<TRIPOS>BOND
     1    1    2 2    
     2    2    3 1    
     3    2    8 am   BACKBONE|DICT|INTERRES
     4    3    7 1    
     5    3    4 2    
     6    4    5 1    
     7    5    6 1    
     8    6    7 2    
     9    8   14 1    
    10    8    9 1    
    11    9   10 1    
    12   10   11 1    
    13   11   12 1    
    14   12   13 1    
    15   12   15 1    
    16   13   14 1    
    17   15   16 1    
    18   16   20 1    
    19   16   17 2    
    20   17   18 1    
    21   18   19 1    
    22   19   20 2    
@<TRIPOS>SUBSTRUCTURE
     1 UNK         1 GROUP             0       ****    0 ROOT    
