@<TRIPOS>MOLECULE
ZINC90009005
21   24    1
SMALL
USER_CHARGES


@<TRIPOS>ATOM
      1 O1         -0.0813    1.8601    0.0000 O.2       1 UNK         0.0000 
      2 C2         -0.0859    0.5600    0.0000 C.2       1 UNK         0.0000 
      3 N3          1.0375   -0.0939    0.0000 N.am      1 UNK         0.0000 
      4 C4          2.1657    0.5520    0.0000 C.3       1 UNK         0.0000 
      5 C5          3.2892   -0.1019    0.0000 C.3       1 UNK         0.0000 
      6 C6          3.9353   -1.2303    0.0000 C.3       1 UNK         0.0000 
      7 C7          4.5892   -0.1066    0.0000 C.3       1 UNK         0.0000 
      8 C8          2.1704    1.8520    0.0000 C.3       1 UNK         0.0000 
      9 C9          1.0329   -1.3939    0.0000 C.3       1 UNK         0.0000 
     10 C10         0.3787   -2.5173    0.0000 C.3       1 UNK         0.0000 
     11 C11         1.6787   -2.5220    0.0000 C.3       1 UNK         0.0000 
     12 C12        -1.2141   -0.0858    0.0000 C.3       1 UNK         0.0000 
     13 N13        -2.3376    0.5681    0.0000 N.3       1 UNK         0.0000 
     14 C14        -2.3329    1.8681    0.0000 C.3       1 UNK         0.0000 
     15 C15        -3.4564    2.5220    0.0000 C.3       1 UNK         0.0000 
     16 O16        -4.5845    1.8762    0.0000 O.3       1 UNK         0.0000 
     17 C17        -4.5892    0.5762    0.0000 C.3       1 UNK         0.0000 
     18 C18        -3.4657   -0.0777    0.0000 C.3       1 UNK         0.0000 
     19 C19        -3.4704   -1.3778    0.0000 C.3       1 UNK         0.0000 
     20 C20        -4.1246   -2.5012    0.0000 C.3       1 UNK         0.0000 
     21 C21        -2.8245   -2.5059    0.0000 C.3       1 UNK         0.0000 
@<TRIPOS>BOND
     1    1    2 2    
     2    2    3 am   BACKBONE|DICT|INTERRES
     3    2   12 1    
     4    3    4 1    
     5    3    9 1    
     6    4    5 1    
     7    4    8 1    
     8    5    7 1    
     9    5    6 1    
    10    6    7 1    
    11    9   11 1    
    12    9   10 1    
    13   10   11 1    
    14   12   13 1    
    15   13   18 1    
    16   13   14 1    
    17   14   15 1    
    18   15   16 1    
    19   16   17 1    
    20   17   18 1    
    21   18   19 1    
    22   19   21 1    
    23   19   20 1    
    24   20   21 1    
@<TRIPOS>SUBSTRUCTURE
     1 UNK         1 GROUP             0       ****    0 ROOT    
